Z3301751520
     RDKit          3D

 19 21  0  0  1  0  0  0  0  0999 V2000
  -11.8758   14.3618   69.7858 C   0  0  0  0  0  0  0  0  0  0  0  0
  -14.0177   16.0543   73.5747 C   0  0  0  0  0  0  0  0  0  0  0  0
  -12.6096   15.8160   74.1625 C   0  0  0  0  0  0  0  0  0  0  0  0
   -9.8743   11.7256   65.8516 C   0  0  0  0  0  0  0  0  0  0  0  0
   -9.1867   13.0244   66.2286 C   0  0  0  0  0  0  0  0  0  0  0  0
  -14.0442   16.2169   72.0421 C   0  0  0  0  0  0  0  0  0  0  0  0
  -11.7744   14.7689   73.3994 C   0  0  0  0  0  0  0  0  0  0  0  0
  -11.2816   11.9148   66.3988 C   0  0  0  0  0  0  0  0  0  0  0  0
  -10.2354   14.0854   65.9181 C   0  0  0  0  0  0  0  0  0  0  0  0
  -13.2704   15.0666   71.4411 C   0  0  2  0  0  0  0  0  0  0  0  0
  -11.8194   15.1216   71.9309 C   0  0  2  0  0  0  0  0  0  0  0  0
  -11.6039   13.4097   66.1750 C   0  0  0  0  0  0  0  0  0  0  0  0
  -12.5242   13.5899   64.9595 C   0  0  0  0  0  0  0  0  0  0  0  0
  -12.2868   14.0039   67.4130 C   0  0  0  0  0  0  0  0  0  0  0  0
  -11.8998   13.0162   63.7021 C   0  0  0  0  0  0  0  0  0  0  0  0
  -13.1416   14.9747   69.9969 N   0  0  0  0  0  0  0  0  0  0  0  0
  -11.1043   14.2898   70.9783 N   0  0  0  0  0  0  0  0  0  0  0  0
  -11.4474   13.8933   68.5698 N   0  0  0  0  0  0  0  0  0  0  0  0
  -12.7928   13.2318   62.6181 O   0  0  0  0  0  0  0  0  0  0  0  0
  1 16  1  0
  1 17  2  0
  1 18  1  0
  2  3  1  0
  2  6  1  0
  3  7  1  0
  4  5  1  0
  4  8  1  0
  5  9  1  0
 10  6  1  6
 11  7  1  1
  8 12  1  0
  9 12  1  0
 10 11  1  0
 10 16  1  0
 11 17  1  0
 12 13  1  0
 12 14  1  0
 13 15  1  0
 14 18  1  0
 15 19  1  0
M  CHG  1  17   1
M  END
>  <idnumber>  (1) 
Z3301751520

>  <Chemgauss4>  (1) 
-12.2648363113403

>  <Hetero-Bemis-Murcko>  (1) 
C1CCC(C1)CNC2=[NH+]C3CCCCC3N2

>  <MW>  (1) 
265.401

>  <HBD>  (1) 
3

>  <HBA>  (1) 
4

>  <RotBonds>  (1) 
4

>  <XLogP>  (1) 
1.9729996919632

>  <sLogP>  (1) 
1.789

>  <TPSA>  (1) 
58.2599983215332

>  <FSP3>  (1) 
0.933

>  <QED>  (1) 
0.726

$$$$
Z1449774053
     RDKit          3D

 28 30  0  0  1  0  0  0  0  0999 V2000
   -8.6375   18.6256   65.5435 C   0  0  0  0  0  0  0  0  0  0  0  0
   -9.5827   18.1670   67.7191 C   0  0  0  0  0  0  0  0  0  0  0  0
   -7.8495   19.6339   66.0983 C   0  0  0  0  0  0  0  0  0  0  0  0
   -8.7947   19.1753   68.2740 C   0  0  0  0  0  0  0  0  0  0  0  0
  -11.4543   15.3408   71.0473 C   0  0  0  0  0  0  0  0  0  0  0  0
  -13.4030   13.9181   70.9242 C   0  0  0  0  0  0  0  0  0  0  0  0
   -9.5042   17.8921   66.3538 C   0  0  0  0  0  0  0  0  0  0  0  0
  -12.1753   14.3325   70.4078 C   0  0  0  0  0  0  0  0  0  0  0  0
   -7.9281   19.9088   67.4636 C   0  0  0  0  0  0  0  0  0  0  0  0
  -11.9610   15.9348   72.2032 C   0  0  0  0  0  0  0  0  0  0  0  0
  -13.9097   14.5121   72.0801 C   0  0  0  0  0  0  0  0  0  0  0  0
  -13.1887   15.5205   72.7196 C   0  0  0  0  0  0  0  0  0  0  0  0
  -10.3160   16.8543   65.7831 C   0  0  0  0  0  0  0  0  0  0  0  0
  -11.4989   15.1622   65.6518 C   0  0  0  0  0  0  0  0  0  0  0  0
  -11.6413   13.7064   69.1913 C   0  0  0  0  0  0  0  0  0  0  0  0
  -12.2477   12.9869   64.6188 C   0  0  0  0  0  0  0  0  0  0  0  0
   -6.2950   21.6031   67.1200 C   0  0  0  0  0  0  0  0  0  0  0  0
  -12.3035   13.9449   65.8213 C   0  0  1  0  0  0  0  0  0  0  0  0
  -10.8590   15.8659   66.5513 N   0  0  0  0  0  0  0  0  0  0  0  0
  -10.5892   16.7909   64.4765 N   0  0  0  0  0  0  0  0  0  0  0  0
  -10.4675   13.0907   69.2826 N   0  0  0  0  0  0  0  0  0  0  0  0
  -12.3741   13.8013   68.0880 N   0  0  0  0  0  0  0  0  0  0  0  0
  -11.3900   15.6454   64.3865 O   0  0  0  0  0  0  0  0  0  0  0  0
   -7.1591   20.8925   68.0054 O   0  0  0  0  0  0  0  0  0  0  0  0
  -11.8407   13.2043   66.9658 O   0  0  0  0  0  0  0  0  0  0  0  0
  -11.2680   16.9023   72.8178 F   0  0  0  0  0  0  0  0  0  0  0  0
  -15.0875   14.1129   72.5777 F   0  0  0  0  0  0  0  0  0  0  0  0
  -13.6756   16.0905   73.8294 F   0  0  0  0  0  0  0  0  0  0  0  0
  1  3  2  0
  1  7  1  0
  2  4  1  0
  2  7  2  0
  3  9  1  0
  4  9  2  0
  5  8  2  0
  5 10  1  0
  6  8  1  0
  6 11  2  0
  7 13  1  0
  8 15  1  0
  9 24  1  0
 10 12  2  0
 10 26  1  0
 11 12  1  0
 11 27  1  0
 12 28  1  0
 13 19  1  0
 13 20  2  0
 14 18  1  0
 14 19  2  0
 14 23  1  0
 15 21  1  0
 15 22  2  0
 18 16  1  6
 17 24  1  0
 18 25  1  0
 20 23  1  0
 22 25  1  0
M  CHG  1  22   1
M  END
>  <idnumber>  (2) 
Z1449774053

>  <Chemgauss4>  (2) 
-12.5872097015381

>  <Hetero-Bemis-Murcko>  (2) 
c1ccc(cc1)C=[NH+]OCc2nc(no2)c3ccccc3

>  <MW>  (2) 
392.337

>  <HBD>  (2) 
1

>  <HBA>  (2) 
6

>  <RotBonds>  (2) 
6

>  <XLogP>  (2) 
4.34999990463257

>  <sLogP>  (2) 
3.561

>  <TPSA>  (2) 
97.3699951171875

>  <FSP3>  (2) 
0.167

>  <QED>  (2) 
0.298

$$$$
Z3013277119
     RDKit          3D

 21 22  0  0  1  0  0  0  0  0999 V2000
  -11.9978   16.4699   73.3228 C   0  0  0  0  0  0  0  0  0  0  0  0
  -11.5714   16.0643   72.0251 C   0  0  0  0  0  0  0  0  0  0  0  0
  -13.0870   15.7479   73.7587 C   0  0  0  0  0  0  0  0  0  0  0  0
  -12.3509   15.0474   71.5188 C   0  0  0  0  0  0  0  0  0  0  0  0
  -10.7345   10.9126   69.8560 C   0  0  0  0  0  0  0  0  0  0  0  0
  -11.6594   12.0248   69.5264 C   0  0  0  0  0  0  0  0  0  0  0  0
  -12.4897   10.1821   71.4466 C   0  0  0  0  0  0  0  0  0  0  0  0
  -10.4842    8.8444   71.3020 C   0  0  0  0  0  0  0  0  0  0  0  0
  -12.4391    9.1976   72.6040 C   0  0  2  0  0  0  0  0  0  0  0  0
  -11.5446    8.0488   72.0901 C   0  0  0  0  0  0  0  0  0  0  0  0
  -10.9122    7.2622   73.2414 C   0  0  0  0  0  0  0  0  0  0  0  0
  -12.2667    7.0676   71.1478 C   0  0  0  0  0  0  0  0  0  0  0  0
  -11.5158   14.5764   67.7502 C   0  0  0  0  0  0  0  0  0  0  0  0
  -11.6503   15.2682   69.1013 C   0  0  0  0  0  0  0  0  0  0  0  0
  -12.2284   14.3408   70.1839 C   0  0  1  0  0  0  0  0  0  0  0  0
  -11.1908   10.0273   70.8063 N   0  0  0  0  0  0  0  0  0  0  0  0
  -11.4501   13.1306   70.3200 N   0  0  0  0  0  0  0  0  0  0  0  0
  -13.7930    8.7681   72.9956 N   0  0  0  0  0  0  0  0  0  0  0  0
   -9.6710   10.8880   69.2530 O   0  0  0  0  0  0  0  0  0  0  0  0
  -12.4846   11.8955   68.6351 O   0  0  0  0  0  0  0  0  0  0  0  0
  -13.5910   14.5863   72.6059 S   0  0  0  0  0  0  0  0  0  0  0  0
  1  2  1  0
  1  3  2  0
  2  4  2  0
  3 21  1  0
  4 15  1  0
  4 21  1  0
  5  6  1  0
  5 16  1  0
  5 19  2  0
  6 17  1  0
  6 20  2  0
  7  9  1  0
  7 16  1  0
  8 10  1  0
  8 16  1  0
  9 10  1  0
  9 18  1  6
 10 11  1  0
 10 12  1  0
 13 14  1  0
 15 14  1  6
 15 17  1  0
M  CHG  1  18   1
M  END
>  <idnumber>  (3) 
Z3013277119

>  <Chemgauss4>  (3) 
-12.2824306488037

>  <Hetero-Bemis-Murcko>  (3) 
c1cc(sc1)CNCCN2CCCC2

>  <MW>  (3) 
309.435

>  <HBD>  (3) 
2

>  <HBA>  (3) 
4

>  <RotBonds>  (3) 
3

>  <XLogP>  (3) 
1.24499988555908

>  <sLogP>  (3) 
1.511

>  <TPSA>  (3) 
77.0500030517578

>  <FSP3>  (3) 
0.6

>  <QED>  (3) 
0.831

$$$$
Z2947882078
     RDKit          3D

 24 25  0  0  1  0  0  0  0  0999 V2000
  -10.5388   14.5902   68.0635 C   0  0  0  0  0  0  0  0  0  0  0  0
  -10.7346    5.5221   71.0634 C   0  0  0  0  0  0  0  0  0  0  0  0
  -11.7812   14.7261   68.6366 C   0  0  0  0  0  0  0  0  0  0  0  0
  -11.8999    6.2147   70.8333 C   0  0  0  0  0  0  0  0  0  0  0  0
  -11.9307   14.2967   66.4802 C   0  0  0  0  0  0  0  0  0  0  0  0
  -10.6327    6.1482   69.0316 C   0  0  0  0  0  0  0  0  0  0  0  0
   -9.2190   14.6973   68.7057 C   0  0  0  0  0  0  0  0  0  0  0  0
  -10.2875    4.8714   72.3053 C   0  0  0  0  0  0  0  0  0  0  0  0
  -12.5817   14.0498   65.1802 C   0  0  0  0  0  0  0  0  0  0  0  0
  -10.2303    6.4054   67.6363 C   0  0  0  0  0  0  0  0  0  0  0  0
  -12.4267   14.1937   72.3847 C   0  0  0  0  0  0  0  0  0  0  0  0
  -15.1941    7.8568   71.7545 C   0  0  0  0  0  0  0  0  0  0  0  0
  -12.2284   15.0135   70.0395 C   0  0  0  0  0  0  0  0  0  0  0  0
  -13.0765    6.5436   71.7041 C   0  0  0  0  0  0  0  0  0  0  0  0
  -12.5407   11.4586   71.3793 C   0  0  0  0  0  0  0  0  0  0  0  0
  -13.2616   10.2019   70.8904 C   0  0  0  0  0  0  0  0  0  0  0  0
  -12.8384   12.6459   70.4757 C   0  0  0  0  0  0  0  0  0  0  0  0
  -12.9929    9.0232   71.8142 C   0  0  0  0  0  0  0  0  0  0  0  0
  -10.6387   14.3232   66.7210 N   0  0  0  0  0  0  0  0  0  0  0  0
   -9.9499    5.4846   69.9379 N   0  0  0  0  0  0  0  0  0  0  0  0
  -12.6627   14.5359   67.6099 N   0  0  0  0  0  0  0  0  0  0  0  0
  -11.8200    6.6100   69.5277 N   0  0  0  0  0  0  0  0  0  0  0  0
  -12.0844   13.8267   70.9611 N   0  0  2  0  0  0  0  0  0  0  0  0
  -13.7464    7.8428   71.3273 N   0  0  2  0  0  0  0  0  0  0  0  0
  1  3  2  0
  1  7  1  0
  1 19  1  0
  2  4  2  0
  2  8  1  0
  2 20  1  0
  3 13  1  0
  3 21  1  0
  4 14  1  0
  4 22  1  0
  5  9  1  0
  5 19  2  0
  5 21  1  0
  6 10  1  0
  6 20  2  0
  6 22  1  0
 23 11  1  1
 24 12  1  1
 13 23  1  0
 14 24  1  0
 15 16  1  0
 15 17  1  0
 16 18  1  0
 17 23  1  0
 18 24  1  0
M  CHG  2  23   1  24   1
M  END
>  <idnumber>  (4) 
Z2947882078

>  <Chemgauss4>  (4) 
-12.2136344909668

>  <Hetero-Bemis-Murcko>  (4) 
c1c([nH]cn1)C[NH2+]CCCC[NH2+]Cc2cnc[nH]2

>  <MW>  (4) 
332.496

>  <HBD>  (4) 
2

>  <HBA>  (4) 
4

>  <RotBonds>  (4) 
9

>  <XLogP>  (4) 
1.97899973392487

>  <sLogP>  (4) 
2.71

>  <TPSA>  (4) 
66.2399978637695

>  <FSP3>  (4) 
0.667

>  <QED>  (4) 
0.693

$$$$
Z2947797342
     RDKit          3D

 28 30  0  0  1  0  0  0  0  0999 V2000
   -8.7533   17.4191   68.2459 C   0  0  0  0  0  0  0  0  0  0  0  0
  -13.0660   15.7565   73.7123 C   0  0  0  0  0  0  0  0  0  0  0  0
  -10.0955   17.7959   68.1998 C   0  0  0  0  0  0  0  0  0  0  0  0
   -8.3952   16.1767   68.7693 C   0  0  0  0  0  0  0  0  0  0  0  0
  -14.0028   15.3404   72.7663 C   0  0  0  0  0  0  0  0  0  0  0  0
  -11.7176   15.8451   73.3665 C   0  0  0  0  0  0  0  0  0  0  0  0
  -11.0796   16.9304   68.6773 C   0  0  0  0  0  0  0  0  0  0  0  0
   -9.3794   15.3112   69.2468 C   0  0  0  0  0  0  0  0  0  0  0  0
  -13.5911   15.0129   71.4744 C   0  0  0  0  0  0  0  0  0  0  0  0
  -11.3059   15.5176   72.0747 C   0  0  0  0  0  0  0  0  0  0  0  0
  -10.7216   15.6880   69.2008 C   0  0  0  0  0  0  0  0  0  0  0  0
  -12.2426   15.1015   71.1286 C   0  0  0  0  0  0  0  0  0  0  0  0
  -10.7292    8.9965   72.1059 C   0  0  0  0  0  0  0  0  0  0  0  0
  -10.4859    7.6851   72.8289 C   0  0  0  0  0  0  0  0  0  0  0  0
  -12.7872    7.9049   72.4825 C   0  0  0  0  0  0  0  0  0  0  0  0
  -12.0746    8.7631   71.4502 C   0  0  1  0  0  0  0  0  0  0  0  0
  -12.8196   10.0405   71.1043 C   0  0  0  0  0  0  0  0  0  0  0  0
  -12.3211   13.1172   67.2860 C   0  0  0  0  0  0  0  0  0  0  0  0
  -11.0880   12.9387   68.1551 C   0  0  0  0  0  0  0  0  0  0  0  0
  -12.4773   12.3960   70.1510 C   0  0  0  0  0  0  0  0  0  0  0  0
  -12.0164   12.8241   65.8240 C   0  0  0  0  0  0  0  0  0  0  0  0
  -11.7934   14.7446   69.7215 C   0  0  0  0  0  0  0  0  0  0  0  0
  -12.0100   10.9415   70.1657 C   0  0  2  0  0  0  0  0  0  0  0  0
  -11.4345   13.2855   69.5822 N   0  0  2  0  0  0  0  0  0  0  0  0
  -11.7701    7.1256   73.1366 O   0  0  0  0  0  0  0  0  0  0  0  0
  -11.9022    8.0212   70.2428 O   0  0  0  0  0  0  0  0  0  0  0  0
  -13.2050   12.9926   65.0638 O   0  0  0  0  0  0  0  0  0  0  0  0
  -12.0703   10.4139   68.8416 O   0  0  0  0  0  0  0  0  0  0  0  0
  1  3  2  0
  1  4  1  0
  2  5  2  0
  2  6  1  0
  3  7  1  0
  4  8  2  0
  5  9  1  0
  6 10  2  0
  7 11  2  0
  8 11  1  0
  9 12  2  0
 10 12  1  0
 11 22  1  0
 12 22  1  0
 13 14  1  0
 13 16  1  0
 14 25  1  0
 15 16  1  0
 15 25  1  0
 16 17  1  0
 16 26  1  6
 17 23  1  0
 18 19  1  0
 18 21  1  0
 24 19  1  6
 20 23  1  0
 20 24  1  0
 21 27  1  0
 22 24  1  0
 23 28  1  6
M  CHG  1  24   1
M  END
>  <idnumber>  (5) 
Z2947797342

>  <Chemgauss4>  (5) 
-12.5222272872925

>  <Hetero-Bemis-Murcko>  (5) 
c1ccc(cc1)C(c2ccccc2)[NH2+]CCCC3CCOC3

>  <MW>  (5) 
385.504

>  <HBD>  (5) 
3

>  <HBA>  (5) 
5

>  <RotBonds>  (5) 
10

>  <XLogP>  (5) 
2.44400000572205

>  <sLogP>  (5) 
2.363

>  <TPSA>  (5) 
74.3600006103516

>  <FSP3>  (5) 
0.478

>  <QED>  (5) 
0.586

$$$$
s_276492____14269906____14696756
     RDKit          3D

 20 22  0  0  1  0  0  0  0  0999 V2000
  -10.2954   12.4847   65.5571 C   0  0  0  0  0  0  0  0  0  0  0  0
  -10.9395   12.6302   64.3290 C   0  0  0  0  0  0  0  0  0  0  0  0
  -12.4372   14.2508   65.3076 C   0  0  0  0  0  0  0  0  0  0  0  0
  -10.7104   13.2306   66.6689 C   0  0  0  0  0  0  0  0  0  0  0  0
  -11.8012   14.1104   66.5499 C   0  0  0  0  0  0  0  0  0  0  0  0
  -12.0078   13.5145   64.2036 C   0  0  0  0  0  0  0  0  0  0  0  0
  -12.2615   14.7166   70.1708 C   0  0  0  0  0  0  0  0  0  0  0  0
  -10.0240   13.0432   67.9966 C   0  0  0  0  0  0  0  0  0  0  0  0
  -12.2920   14.9288   67.7223 C   0  0  0  0  0  0  0  0  0  0  0  0
  -10.2089   14.2601   68.8973 C   0  0  0  0  0  0  0  0  0  0  0  0
  -13.9085   15.2015   71.7289 C   0  0  0  0  0  0  0  0  0  0  0  0
  -12.6556   14.6690   72.4605 C   0  0  2  0  0  0  0  0  0  0  0  0
  -12.1029   15.6568   73.4725 C   0  0  0  0  0  0  0  0  0  0  0  0
  -11.6758   14.4017   71.3980 N   0  0  0  0  0  0  0  0  0  0  0  0
  -11.6295   14.5832   68.9812 N   0  0  0  0  0  0  0  0  0  0  0  0
  -13.5686   15.1866   70.3047 N   0  0  0  0  0  0  0  0  0  0  0  0
  -12.6354   13.6574   63.0043 O   0  0  0  0  0  0  0  0  0  0  0  0
  -10.9772   15.1767   74.0296 F   0  0  0  0  0  0  0  0  0  0  0  0
  -11.8191   16.8286   72.8770 F   0  0  0  0  0  0  0  0  0  0  0  0
  -13.0010   15.8797   74.4482 F   0  0  0  0  0  0  0  0  0  0  0  0
  1  2  2  0
  1  4  1  0
  2  6  1  0
  3  5  1  0
  3  6  2  0
  4  5  2  0
  4  8  1  0
  5  9  1  0
  6 17  1  0
  7 14  1  0
  7 15  1  0
  7 16  2  0
  8 10  1  0
  9 15  1  0
 10 15  1  0
 11 12  1  0
 11 16  1  0
 12 13  1  1
 12 14  1  0
 13 18  1  0
 13 19  1  0
 13 20  1  0
M  CHG  1  16   1
M  END
>  <idnumber>  (6) 
s_276492____14269906____14696756

>  <Chemgauss4>  (6) 
-12.5791873931885

>  <Hetero-Bemis-Murcko>  (6) 
c1ccc2c(c1)CCN(C2)C3=[NH+]CCN3

>  <MW>  (6) 
285.269

>  <HBD>  (6) 
2

>  <HBA>  (6) 
4

>  <RotBonds>  (6) 
0

>  <XLogP>  (6) 
0.739999949932098

>  <sLogP>  (6) 
1.64

>  <TPSA>  (6) 
49.4699974060059

>  <FSP3>  (6) 
0.462

>  <QED>  (6) 
0.762

$$$$
Z3132367210
     RDKit          3D

 19 21  0  0  1  0  0  0  0  0999 V2000
  -10.3669   13.7137   64.8961 C   0  0  0  0  0  0  0  0  0  0  0  0
  -11.1290   14.7817   65.1725 C   0  0  0  0  0  0  0  0  0  0  0  0
  -10.6599   15.7305   66.2023 C   0  0  0  0  0  0  0  0  0  0  0  0
  -10.7697   12.6925   63.8680 C   0  0  0  0  0  0  0  0  0  0  0  0
  -12.4140   15.0613   64.4653 C   0  0  0  0  0  0  0  0  0  0  0  0
  -12.0588   15.5856   72.1425 C   0  0  0  0  0  0  0  0  0  0  0  0
  -11.8963   14.3456   67.8208 C   0  0  0  0  0  0  0  0  0  0  0  0
  -10.7567   16.3685   68.6719 C   0  0  0  0  0  0  0  0  0  0  0  0
  -12.2352   12.7881   63.4462 C   0  0  0  0  0  0  0  0  0  0  0  0
  -11.3545   13.5307   68.9847 C   0  0  0  0  0  0  0  0  0  0  0  0
  -10.2163   15.5727   69.8541 C   0  0  0  0  0  0  0  0  0  0  0  0
  -13.3393   15.3727   72.9231 C   0  0  0  0  0  0  0  0  0  0  0  0
  -13.1006   13.6012   71.4222 C   0  0  0  0  0  0  0  0  0  0  0  0
  -12.3542   14.8032   70.8894 C   0  0  2  0  0  0  0  0  0  0  0  0
  -11.0464   15.5006   67.5214 N   0  0  0  0  0  0  0  0  0  0  0  0
  -12.5974   14.2222   63.2325 N   0  0  0  0  0  0  0  0  0  0  0  0
  -11.1229   14.4143   70.1856 N   0  0  0  0  0  0  0  0  0  0  0  0
   -9.9491   16.6666   65.8322 O   0  0  0  0  0  0  0  0  0  0  0  0
  -13.8155   14.0606   72.5829 O   0  0  0  0  0  0  0  0  0  0  0  0
  1  2  2  0
  1  4  1  0
  2  3  1  0
  2  5  1  0
  3 15  1  0
  3 18  2  0
  4  9  1  0
  5 16  1  0
  6 12  1  0
  6 14  1  0
  7 10  1  0
  7 15  1  0
  8 11  1  0
  8 15  1  0
  9 16  1  0
 10 17  1  0
 11 17  1  0
 12 19  1  0
 13 14  1  0
 13 19  1  0
 14 17  1  1
M  CHG  2  16   1  17   1
M  END
>  <idnumber>  (7) 
Z3132367210

>  <Chemgauss4>  (7) 
-12.2245616912842

>  <Hetero-Bemis-Murcko>  (7) 
C1C[NH2+]CC(=C1)CN2CC[NH+](CC2)C3CCOC3

>  <MW>  (7) 
265.357

>  <HBD>  (7) 
1

>  <HBA>  (7) 
4

>  <RotBonds>  (7) 
2

>  <XLogP>  (7) 
-0.847000002861023

>  <sLogP>  (7) 
-0.161

>  <TPSA>  (7) 
50.5900001525879

>  <FSP3>  (7) 
0.786

>  <QED>  (7) 
0.753

$$$$
Z2364728792
     RDKit          3D

 19 21  0  0  1  0  0  0  0  0999 V2000
  -11.7838   14.2924   69.5930 C   0  0  0  0  0  0  0  0  0  0  0  0
  -12.6838   13.8647   73.7728 C   0  0  0  0  0  0  0  0  0  0  0  0
  -13.8413   15.9482   72.9914 C   0  0  0  0  0  0  0  0  0  0  0  0
  -14.8630   13.7026   72.5411 C   0  0  0  0  0  0  0  0  0  0  0  0
  -11.7162   15.2051   71.8869 C   0  0  0  0  0  0  0  0  0  0  0  0
  -12.7397   12.9556   71.4360 C   0  0  0  0  0  0  0  0  0  0  0  0
  -13.8977   15.0423   70.6528 C   0  0  0  0  0  0  0  0  0  0  0  0
  -12.4719   15.2864   73.2246 C   0  0  2  0  0  0  0  0  0  0  0  0
  -13.4995   13.0280   72.7720 C   0  0  1  0  0  0  0  0  0  0  0  0
  -14.6631   15.1234   71.9854 C   0  0  2  0  0  0  0  0  0  0  0  0
  -12.5260   14.3743   70.8716 C   0  0  2  0  0  0  0  0  0  0  0  0
  -11.3067   11.6938   63.4665 C   0  0  0  0  0  0  0  0  0  0  0  0
  -11.5225   13.3911   65.3214 C   0  0  0  0  0  0  0  0  0  0  0  0
  -12.4473   13.9120   66.4159 C   0  0  0  0  0  0  0  0  0  0  0  0
  -12.2656   12.5510   64.2813 C   0  0  1  0  0  0  0  0  0  0  0  0
  -10.5809   13.7340   69.6292 N   0  0  0  0  0  0  0  0  0  0  0  0
  -12.3867   14.7763   68.5161 N   0  0  0  0  0  0  0  0  0  0  0  0
  -12.9887   13.3990   63.3933 O   0  0  0  0  0  0  0  0  0  0  0  0
  -11.6851   14.6913   67.3265 O   0  0  0  0  0  0  0  0  0  0  0  0
 11  1  1  6
  1 16  1  0
  1 17  2  0
  8  2  1  6
  9  2  1  1
  3  8  1  0
 10  3  1  1
  4  9  1  0
  4 10  1  0
  5  8  1  0
  5 11  1  0
  6  9  1  0
  6 11  1  0
  7 10  1  0
  7 11  1  0
 15 12  1  6
 13 14  1  0
 13 15  1  0
 14 19  1  0
 15 18  1  0
 17 19  1  0
M  CHG  1  17   1
M  END
>  <idnumber>  (8) 
Z2364728792

>  <Chemgauss4>  (8) 
-12.4974937438965

>  <Hetero-Bemis-Murcko>  (8) 
C1C2CC3CC1CC(C2)C3

>  <MW>  (8) 
266.385

>  <HBD>  (8) 
2

>  <HBA>  (8) 
3

>  <RotBonds>  (8) 
5

>  <XLogP>  (8) 
2.65299987792969

>  <sLogP>  (8) 
2.263

>  <TPSA>  (8) 
69.4499969482422

>  <FSP3>  (8) 
0.933

>  <QED>  (8) 
0.347

$$$$
Z3871078534
     RDKit          3D

 21 24  0  0  1  0  0  0  0  0999 V2000
  -11.3986   15.4530   73.6778 C   0  0  0  0  0  0  0  0  0  0  0  0
  -13.6242   14.9300   70.8937 C   0  0  0  0  0  0  0  0  0  0  0  0
  -12.1538   16.2880   74.4864 C   0  0  0  0  0  0  0  0  0  0  0  0
  -13.9846   16.3478   73.0440 C   0  0  0  0  0  0  0  0  0  0  0  0
  -13.3092   15.5052   72.1557 C   0  0  0  0  0  0  0  0  0  0  0  0
  -12.0253   15.0748   72.4941 C   0  0  0  0  0  0  0  0  0  0  0  0
  -12.5445   14.1746   70.4973 C   0  0  0  0  0  0  0  0  0  0  0  0
   -9.6927   13.2511   66.4539 C   0  0  0  0  0  0  0  0  0  0  0  0
  -11.1333   13.8633   64.4860 C   0  0  0  0  0  0  0  0  0  0  0  0
  -11.0433   15.4041   66.4900 C   0  0  0  0  0  0  0  0  0  0  0  0
   -9.5382   11.8397   65.8965 C   0  0  0  0  0  0  0  0  0  0  0  0
  -11.0036   12.4419   63.9563 C   0  0  0  0  0  0  0  0  0  0  0  0
  -11.4209   15.3110   67.9547 C   0  0  0  0  0  0  0  0  0  0  0  0
  -12.2335   13.3489   66.7259 C   0  0  0  0  0  0  0  0  0  0  0  0
  -11.0053   13.9439   66.0169 C   0  0  2  0  0  0  0  0  0  0  0  0
   -9.4372   10.5110   63.7917 C   0  0  0  0  0  0  0  0  0  0  0  0
  -12.3241   13.3547   69.2603 C   0  0  0  0  0  0  0  0  0  0  0  0
  -13.4000   16.7326   74.2041 N   0  0  0  0  0  0  0  0  0  0  0  0
  -11.5848   14.2682   71.4695 N   0  0  0  0  0  0  0  0  0  0  0  0
   -9.6816   11.8662   64.3966 N   0  0  2  0  0  0  0  0  0  0  0  0
  -12.3991   14.1602   68.0020 N   0  0  1  0  0  0  0  0  0  0  0  0
  1  3  2  0
  1  6  1  0
  2  5  1  0
  2  7  2  0
  3 18  1  0
  4  5  1  0
  4 18  2  0
  5  6  2  0
  6 19  1  0
  7 17  1  0
  7 19  1  0
  8 11  1  0
 15  8  1  1
  9 12  1  0
  9 15  1  0
 10 13  1  0
 10 15  1  0
 11 20  1  0
 12 20  1  0
 13 21  1  0
 14 15  1  0
 14 21  1  0
 20 16  1  1
 21 17  1  1
M  CHG  2  20   1  21   1
M  END
>  <idnumber>  (9) 
Z3871078534

>  <Chemgauss4>  (9) 
-12.333517074585

>  <Hetero-Bemis-Murcko>  (9) 
c1cncc2c1[nH]c(c2)C[NH+]3CCC4(C3)CC[NH2+]CC4

>  <MW>  (9) 
284.407

>  <HBD>  (9) 
1

>  <HBA>  (9) 
3

>  <RotBonds>  (9) 
2

>  <XLogP>  (9) 
1.80899977684021

>  <sLogP>  (9) 
2.481

>  <TPSA>  (9) 
37.560001373291

>  <FSP3>  (9) 
0.588

>  <QED>  (9) 
0.92

$$$$
Z2226464236
     RDKit          3D

 24 25  0  0  1  0  0  0  0  0999 V2000
  -11.1567   11.9074   65.0824 C   0  0  0  0  0  0  0  0  0  0  0  0
  -10.4168   10.5133   71.0181 C   0  0  0  0  0  0  0  0  0  0  0  0
  -12.5756   11.6273   63.3567 C   0  0  0  0  0  0  0  0  0  0  0  0
  -10.8465    8.4196   70.3098 C   0  0  0  0  0  0  0  0  0  0  0  0
  -11.4087   11.1503   63.9117 C   0  0  0  0  0  0  0  0  0  0  0  0
  -10.0902    9.1470   71.2020 C   0  0  0  0  0  0  0  0  0  0  0  0
  -12.1774   12.8239   65.2071 C   0  0  0  0  0  0  0  0  0  0  0  0
  -11.3630   10.5791   70.0192 C   0  0  0  0  0  0  0  0  0  0  0  0
  -12.6687   15.5681   74.2807 C   0  0  0  0  0  0  0  0  0  0  0  0
  -13.1385   15.7495   73.0415 C   0  0  0  0  0  0  0  0  0  0  0  0
  -12.3741   13.8474   66.2658 C   0  0  0  0  0  0  0  0  0  0  0  0
  -12.0278   11.7824   69.4559 C   0  0  0  0  0  0  0  0  0  0  0  0
  -13.0499   14.7216   71.9517 C   0  0  0  0  0  0  0  0  0  0  0  0
  -12.2777   15.2614   70.7413 C   0  0  0  0  0  0  0  0  0  0  0  0
  -11.4699   14.8086   68.3669 C   0  0  0  0  0  0  0  0  0  0  0  0
  -12.2215   14.2527   69.5818 C   0  0  1  0  0  0  0  0  0  0  0  0
  -13.0342   12.6442   64.1527 N   0  0  0  0  0  0  0  0  0  0  0  0
  -11.6167    9.3005   69.5962 N   0  0  0  0  0  0  0  0  0  0  0  0
  -11.4061   13.8899   67.2615 N   0  0  0  0  0  0  0  0  0  0  0  0
  -11.6474   12.9960   70.0061 N   0  0  0  0  0  0  0  0  0  0  0  0
  -13.3649   14.5721   66.2231 O   0  0  0  0  0  0  0  0  0  0  0  0
  -12.8701   11.6443   68.5727 O   0  0  0  0  0  0  0  0  0  0  0  0
  -10.6574   10.1616   63.4343 F   0  0  0  0  0  0  0  0  0  0  0  0
   -9.2140    8.6555   72.0741 F   0  0  0  0  0  0  0  0  0  0  0  0
  1  5  1  0
  1  7  2  0
  2  6  1  0
  2  8  2  0
  3  5  2  0
  3 17  1  0
  4  6  2  0
  4 18  1  0
  5 23  1  0
  6 24  1  0
  7 11  1  0
  7 17  1  0
  8 12  1  0
  8 18  1  0
  9 10  2  0
 10 13  1  0
 11 19  1  0
 11 21  2  0
 12 20  1  0
 12 22  2  0
 13 14  1  0
 16 14  1  1
 15 16  1  0
 15 19  1  0
 16 20  1  0
M  END
>  <idnumber>  (10) 
Z2226464236

>  <Chemgauss4>  (10) 
-12.1472959518433

>  <Hetero-Bemis-Murcko>  (10) 
c1cc([nH]c1)CNCCNCc2ccc[nH]2

>  <MW>  (10) 
336.342

>  <HBD>  (10) 
4

>  <HBA>  (10) 
2

>  <RotBonds>  (10) 
8

>  <XLogP>  (10) 
1.22599995136261

>  <sLogP>  (10) 
2.116

>  <TPSA>  (10) 
89.7799987792969

>  <FSP3>  (10) 
0.25

>  <QED>  (10) 
0.556

$$$$
Z3864241249
     RDKit          3D

 19 21  0  0  1  0  0  0  0  0999 V2000
  -13.3113   15.8994   72.8551 C   0  0  0  0  0  0  0  0  0  0  0  0
  -13.7410   14.5730   72.8154 C   0  0  0  0  0  0  0  0  0  0  0  0
  -12.2608   16.3170   72.0379 C   0  0  0  0  0  0  0  0  0  0  0  0
  -12.0695   14.0816   71.1415 C   0  0  0  0  0  0  0  0  0  0  0  0
  -13.1201   13.6641   71.9587 C   0  0  0  0  0  0  0  0  0  0  0  0
  -11.6399   15.4081   71.1812 C   0  0  0  0  0  0  0  0  0  0  0  0
  -11.7693   12.7848   67.9798 C   0  0  0  0  0  0  0  0  0  0  0  0
  -10.7571   12.2501   65.6148 C   0  0  0  0  0  0  0  0  0  0  0  0
  -12.1367   12.4058   63.3855 C   0  0  0  0  0  0  0  0  0  0  0  0
  -12.3439   14.5514   64.4742 C   0  0  0  0  0  0  0  0  0  0  0  0
  -11.3721   13.2876   66.5836 C   0  0  1  0  0  0  0  0  0  0  0  0
  -12.1187   12.1651   64.8831 C   0  0  2  0  0  0  0  0  0  0  0  0
  -12.5130   13.4961   65.5528 C   0  0  2  0  0  0  0  0  0  0  0  0
  -11.4466   13.1693   70.2811 N   0  0  0  0  0  0  0  0  0  0  0  0
  -11.1950   13.5299   68.9891 N   0  0  0  0  0  0  0  0  0  0  0  0
  -12.6370   13.8062   63.2143 N   0  0  0  0  0  0  0  0  0  0  0  0
  -12.5002   11.8085   68.1303 O   0  0  0  0  0  0  0  0  0  0  0  0
  -13.6884   12.0321   71.9437 Cl  0  0  0  0  0  0  0  0  0  0  0  0
  -10.3423   15.9725   70.1889 Cl  0  0  0  0  0  0  0  0  0  0  0  0
  1  2  2  0
  1  3  1  0
  2  5  1  0
  3  6  2  0
  4  5  2  0
  4  6  1  0
  4 14  1  0
  5 18  1  0
  6 19  1  0
 11  7  1  1
  7 15  1  0
  7 17  2  0
  8 11  1  0
 12  8  1  1
  9 12  1  0
  9 16  1  0
 13 10  1  6
 10 16  1  0
 11 13  1  0
 12 13  1  0
 14 15  1  0
M  CHG  1  16   1
M  END
>  <idnumber>  (11) 
Z3864241249

>  <Chemgauss4>  (11) 
-12.7987270355225

>  <Hetero-Bemis-Murcko>  (11) 
c1ccc(cc1)NNCC2CC3C2C[NH2+]C3

>  <MW>  (11) 
300.189

>  <HBD>  (11) 
3

>  <HBA>  (11) 
3

>  <RotBonds>  (11) 
3

>  <XLogP>  (11) 
2.05399990081787

>  <sLogP>  (11) 
2.292

>  <TPSA>  (11) 
57.7399978637695

>  <FSP3>  (11) 
0.462

>  <QED>  (11) 
0.751

$$$$
s_276492____14269854____14701948
     RDKit          3D

 20 21  0  0  1  0  0  0  0  0999 V2000
  -11.8425   14.1431   69.6798 C   0  0  0  0  0  0  0  0  0  0  0  0
  -11.6967   15.0851   71.7934 C   0  0  0  0  0  0  0  0  0  0  0  0
  -12.1209    8.8944   71.3792 C   0  0  0  0  0  0  0  0  0  0  0  0
  -10.6563    7.3966   70.0403 C   0  0  0  0  0  0  0  0  0  0  0  0
  -12.9915    7.6823   71.6638 C   0  0  0  0  0  0  0  0  0  0  0  0
  -11.6022    6.2617   70.3945 C   0  0  0  0  0  0  0  0  0  0  0  0
  -12.9183   15.6772   71.0544 C   0  0  2  0  0  0  0  0  0  0  0  0
  -14.5036   13.9406   71.9347 C   0  0  0  0  0  0  0  0  0  0  0  0
  -14.2011   16.1057   73.1696 C   0  0  0  0  0  0  0  0  0  0  0  0
  -11.9028   13.8147   67.2411 C   0  0  0  0  0  0  0  0  0  0  0  0
  -10.6888   12.2107   68.6815 C   0  0  0  0  0  0  0  0  0  0  0  0
  -10.5939    9.8650   69.6558 C   0  0  0  0  0  0  0  0  0  0  0  0
  -14.2232   15.4382   71.7929 C   0  0  0  0  0  0  0  0  0  0  0  0
  -11.4780   10.9524   69.0500 C   0  0  2  0  0  0  0  0  0  0  0  0
  -12.9291   15.0169   69.7413 N   0  0  0  0  0  0  0  0  0  0  0  0
  -11.0854   14.1447   70.8521 N   0  0  0  0  0  0  0  0  0  0  0  0
  -11.5523   13.3659   68.5876 N   0  0  0  0  0  0  0  0  0  0  0  0
  -11.4405    8.6878   70.0465 N   0  0  0  0  0  0  0  0  0  0  0  0
  -12.2044    6.4905   71.6694 O   0  0  0  0  0  0  0  0  0  0  0  0
  -12.1168   10.4693   67.8688 O   0  0  0  0  0  0  0  0  0  0  0  0
  1 15  1  0
  1 16  2  0
  1 17  1  0
  2  7  1  0
  2 16  1  0
  3  5  1  0
  3 18  1  0
  4  6  1  0
  4 18  1  0
  5 19  1  0
  6 19  1  0
  7 13  1  1
  7 15  1  0
  8 13  1  0
  9 13  1  0
 10 17  1  0
 11 14  1  0
 11 17  1  0
 12 14  1  0
 12 18  1  0
 14 20  1  6
M  CHG  2  16   1  18   1
M  END
>  <idnumber>  (12) 
s_276492____14269854____14701948

>  <Chemgauss4>  (12) 
-13.2601490020752

>  <Hetero-Bemis-Murcko>  (12) 
C1C[NH+]=C(N1)NCCC[NH+]2CCOCC2

>  <MW>  (12) 
284.404

>  <HBD>  (12) 
2

>  <HBA>  (12) 
6

>  <RotBonds>  (12) 
5

>  <XLogP>  (12) 
-1.02900004386902

>  <sLogP>  (12) 
-0.405

>  <TPSA>  (12) 
63.1399993896484

>  <FSP3>  (12) 
0.929

>  <QED>  (12) 
0.719

$$$$
s_2230____665084____12911296
     RDKit          3D

 24 27  0  0  0  0  0  0  0  0999 V2000
  -12.6632   13.5691   65.1923 C   0  0  0  0  0  0  0  0  0  0  0  0
  -13.5358   15.9240   72.6164 C   0  0  0  0  0  0  0  0  0  0  0  0
  -12.0640   13.9884   66.4151 C   0  0  0  0  0  0  0  0  0  0  0  0
  -13.5935   15.4655   71.2686 C   0  0  0  0  0  0  0  0  0  0  0  0
  -12.2954   12.2867   64.8489 C   0  0  0  0  0  0  0  0  0  0  0  0
  -12.2474   15.9371   73.1038 C   0  0  0  0  0  0  0  0  0  0  0  0
  -11.2612   13.0104   66.9599 C   0  0  0  0  0  0  0  0  0  0  0  0
  -12.3468   15.1458   70.7771 C   0  0  0  0  0  0  0  0  0  0  0  0
  -11.4418    9.1136   71.3785 C   0  0  0  0  0  0  0  0  0  0  0  0
  -11.6779   10.9602   70.2559 C   0  0  0  0  0  0  0  0  0  0  0  0
  -13.6422   10.0713   71.5561 C   0  0  0  0  0  0  0  0  0  0  0  0
  -14.0062    9.0542   72.3548 C   0  0  0  0  0  0  0  0  0  0  0  0
  -11.7853    8.0013   72.2320 C   0  0  0  0  0  0  0  0  0  0  0  0
  -10.4628   13.0578   68.2293 C   0  0  0  0  0  0  0  0  0  0  0  0
  -11.9839   14.6334   69.4145 C   0  0  0  0  0  0  0  0  0  0  0  0
  -12.2833   12.1759   69.6818 C   0  0  0  0  0  0  0  0  0  0  0  0
  -10.2919    9.3587   70.7964 N   0  0  0  0  0  0  0  0  0  0  0  0
  -10.4435   10.5350   70.0816 N   0  0  0  0  0  0  0  0  0  0  0  0
  -12.3492   10.0959   71.0675 N   0  0  0  0  0  0  0  0  0  0  0  0
  -13.1134    8.0472   72.6876 N   0  0  0  0  0  0  0  0  0  0  0  0
  -11.3106   13.2885   69.4505 N   0  0  0  0  0  0  0  0  0  0  0  0
  -11.0052    7.1024   72.5345 O   0  0  0  0  0  0  0  0  0  0  0  0
  -11.2320   11.5938   65.9983 S   0  0  0  0  0  0  0  0  0  0  0  0
  -11.1142   15.3983   71.9385 S   0  0  0  0  0  0  0  0  0  0  0  0
  1  3  1  0
  1  5  2  0
  2  4  1  0
  2  6  2  0
  3  7  2  0
  4  8  2  0
  5 23  1  0
  6 24  1  0
  7 14  1  0
  7 23  1  0
  8 15  1  0
  8 24  1  0
  9 13  1  0
  9 17  2  0
  9 19  1  0
 10 16  1  0
 10 18  2  0
 10 19  1  0
 11 12  2  0
 11 19  1  0
 12 20  1  0
 13 20  1  0
 13 22  2  0
 14 21  1  0
 15 21  1  0
 16 21  1  0
 17 18  1  0
M  CHG  1  21   1
M  END
>  <idnumber>  (13) 
s_2230____665084____12911296

>  <Chemgauss4>  (13) 
-12.1651449203491

>  <Hetero-Bemis-Murcko>  (13) 
c1c2nnc(n2cc[nH]1)C[NH+](Cc3cccs3)Cc4cccs4

>  <MW>  (13) 
357.464

>  <HBD>  (13) 
1

>  <HBA>  (13) 
7

>  <RotBonds>  (13) 
6

>  <XLogP>  (13) 
2.98299956321716

>  <sLogP>  (13) 
2.743

>  <TPSA>  (13) 
67.4899978637695

>  <FSP3>  (13) 
0.188

>  <QED>  (13) 
0.576

$$$$
Z1738103527
     RDKit          3D

 21 22  0  0  1  0  0  0  0  0999 V2000
  -11.9061   15.8256   71.4488 C   0  0  0  0  0  0  0  0  0  0  0  0
  -13.8570   15.6583   72.7012 C   0  0  0  0  0  0  0  0  0  0  0  0
  -12.6936   16.3692   72.5046 C   0  0  0  0  0  0  0  0  0  0  0  0
  -12.4978   14.7198   70.8787 C   0  0  0  0  0  0  0  0  0  0  0  0
  -12.1249    7.5289   71.3076 C   0  0  0  0  0  0  0  0  0  0  0  0
  -11.9807   11.3906   69.7720 C   0  0  0  0  0  0  0  0  0  0  0  0
  -10.1517    6.6929   68.1361 C   0  0  0  0  0  0  0  0  0  0  0  0
  -10.3472    8.0244   67.4256 C   0  0  0  0  0  0  0  0  0  0  0  0
  -11.1334    6.5393   69.2901 C   0  0  0  0  0  0  0  0  0  0  0  0
  -10.2570    9.1920   68.3946 C   0  0  0  0  0  0  0  0  0  0  0  0
  -11.0657    7.7126   70.2679 C   0  0  1  0  0  0  0  0  0  0  0  0
  -11.9939   13.8678   69.7498 C   0  0  0  0  0  0  0  0  0  0  0  0
  -11.2670   10.2258   70.4109 C   0  0  0  0  0  0  0  0  0  0  0  0
  -13.3775    7.4378   70.8819 N   0  0  0  0  0  0  0  0  0  0  0  0
  -11.4764   12.6036   70.2164 N   0  0  0  0  0  0  0  0  0  0  0  0
  -11.7868    7.4647   72.5881 N   0  0  0  0  0  0  0  0  0  0  0  0
  -11.2670    9.0153   69.5089 N   0  0  1  0  0  0  0  0  0  0  0  0
  -12.8924   11.2591   68.9597 O   0  0  0  0  0  0  0  0  0  0  0  0
  -10.4534    7.5707   72.9191 O   0  0  0  0  0  0  0  0  0  0  0  0
  -13.9964   14.3413   71.6156 S   0  0  0  0  0  0  0  0  0  0  0  0
  -12.1638   17.8849   73.4866 Br  0  0  0  0  0  0  0  0  0  0  0  0
  1  3  1  0
  1  4  2  0
  2  3  2  0
  2 20  1  0
  3 21  1  0
  4 12  1  0
  4 20  1  0
 11  5  1  1
  5 14  1  0
  5 16  2  0
  6 13  1  0
  6 15  1  0
  6 18  2  0
  7  8  1  0
  7  9  1  0
  8 10  1  0
  9 11  1  0
 10 17  1  0
 11 17  1  0
 12 15  1  0
 17 13  1  1
 16 19  1  0
M  CHG  2  16   1  17   1
M  END
>  <idnumber>  (14) 
Z1738103527

>  <Chemgauss4>  (14) 
-12.3782873153687

>  <Hetero-Bemis-Murcko>  (14) 
c1cc(sc1)CNCC[NH+]2CCCCC2

>  <MW>  (14) 
375.292

>  <HBD>  (14) 
3

>  <HBA>  (14) 
5

>  <RotBonds>  (14) 
5

>  <XLogP>  (14) 
1.78599989414215

>  <sLogP>  (14) 
1.728

>  <TPSA>  (14) 
93.7600021362305

>  <FSP3>  (14) 
0.538

>  <QED>  (14) 
0.316

$$$$
Z3364106864
     RDKit          3D

 17 19  0  0  1  0  0  0  0  0999 V2000
  -11.2334   14.7328   65.2632 C   0  0  0  0  0  0  0  0  0  0  0  0
  -10.7872   12.4816   64.2073 C   0  0  0  0  0  0  0  0  0  0  0  0
  -12.5927   14.7724   64.5793 C   0  0  0  0  0  0  0  0  0  0  0  0
  -12.1505   12.5397   63.5325 C   0  0  0  0  0  0  0  0  0  0  0  0
  -12.9538   13.2111   71.4137 C   0  0  0  0  0  0  0  0  0  0  0  0
  -11.9004   14.9887   70.1586 C   0  0  0  0  0  0  0  0  0  0  0  0
  -13.1670   14.4920   72.1585 C   0  0  2  0  0  0  0  0  0  0  0  0
  -12.5164   15.5898   71.3834 C   0  0  1  0  0  0  0  0  0  0  0  0
  -10.7227   13.3035   65.5039 C   0  0  0  0  0  0  0  0  0  0  0  0
  -12.0115   15.2492   72.7626 C   0  0  1  0  0  0  0  0  0  0  0  0
  -11.4799   12.6183   66.6448 C   0  0  0  0  0  0  0  0  0  0  0  0
  -12.2489   16.1882   73.8940 C   0  0  0  0  0  0  0  0  0  0  0  0
  -11.2946   13.3622   67.9667 C   0  0  0  0  0  0  0  0  0  0  0  0
  -12.0804   12.6931   69.0846 C   0  0  0  0  0  0  0  0  0  0  0  0
  -12.5359   13.9666   63.3241 N   0  0  0  0  0  0  0  0  0  0  0  0
  -11.9064   13.4771   70.3412 N   0  0  2  0  0  0  0  0  0  0  0  0
  -12.8712   15.4646   75.0376 N   0  0  0  0  0  0  0  0  0  0  0  0
  1  3  1  0
  1  9  1  0
  2  4  1  0
  2  9  1  0
  3 15  1  0
  4 15  1  0
  7  5  1  6
  5 16  1  0
  8  6  1  6
  6 16  1  0
  7  8  1  0
  7 10  1  0
  8 10  1  0
  9 11  1  0
 10 12  1  1
 11 13  1  0
 12 17  1  0
 13 14  1  0
 16 14  1  6
M  CHG  3  15   1  16   1  17   1
M  END
>  <idnumber>  (15) 
Z3364106864

>  <Chemgauss4>  (15) 
-12.349308013916

>  <Hetero-Bemis-Murcko>  (15) 
C1C[NH2+]CCC1CCC[NH+]2CC3CC3C2

>  <MW>  (15) 
237.391

>  <HBD>  (15) 
2

>  <HBA>  (15) 
3

>  <RotBonds>  (15) 
5

>  <XLogP>  (15) 
0.841000020503998

>  <sLogP>  (15) 
0.903

>  <TPSA>  (15) 
48.689998626709

>  <FSP3>  (15) 
1.0

>  <QED>  (15) 
0.746

$$$$
Z2005164171
     RDKit          3D

 32 36  0  0  0  0  0  0  0  0999 V2000
  -13.2404   10.3178   71.1084 C   0  0  0  0  0  0  0  0  0  0  0  0
  -13.3999    9.3314   72.0858 C   0  0  0  0  0  0  0  0  0  0  0  0
  -10.8781    9.7998   70.8884 C   0  0  0  0  0  0  0  0  0  0  0  0
  -11.5186   16.5040   69.1670 C   0  0  0  0  0  0  0  0  0  0  0  0
  -10.9267   13.9974   67.9481 C   0  0  0  0  0  0  0  0  0  0  0  0
  -11.0146    8.7999   71.8718 C   0  0  0  0  0  0  0  0  0  0  0  0
  -11.9999   10.5501   70.5176 C   0  0  0  0  0  0  0  0  0  0  0  0
  -10.1181    7.8742   72.4755 C   0  0  0  0  0  0  0  0  0  0  0  0
  -12.2697    8.5891   72.4466 C   0  0  0  0  0  0  0  0  0  0  0  0
  -11.0699   16.4170   67.8644 C   0  0  0  0  0  0  0  0  0  0  0  0
  -11.6734   15.3064   69.8713 C   0  0  0  0  0  0  0  0  0  0  0  0
  -10.7799   15.1894   67.2675 C   0  0  0  0  0  0  0  0  0  0  0  0
  -11.3809   14.0666   69.2683 C   0  0  0  0  0  0  0  0  0  0  0  0
  -10.8329    7.1335   73.3883 C   0  0  0  0  0  0  0  0  0  0  0  0
  -10.3677   16.8369   65.7107 C   0  0  0  0  0  0  0  0  0  0  0  0
  -11.8655   11.5976   69.4908 C   0  0  0  0  0  0  0  0  0  0  0  0
  -13.0500   15.6176   73.9171 C   0  0  0  0  0  0  0  0  0  0  0  0
  -13.8275   14.8066   72.8878 C   0  0  0  0  0  0  0  0  0  0  0  0
  -11.5637   15.6079   73.5803 C   0  0  0  0  0  0  0  0  0  0  0  0
  -13.5680   15.3035   71.4664 C   0  0  0  0  0  0  0  0  0  0  0  0
  -11.3098   16.1093   72.1604 C   0  0  0  0  0  0  0  0  0  0  0  0
   -8.6771    7.7324   72.1782 C   0  0  0  0  0  0  0  0  0  0  0  0
  -10.4159    6.0440   74.2920 C   0  0  0  0  0  0  0  0  0  0  0  0
  -11.0079   18.8353   67.1758 C   0  0  0  0  0  0  0  0  0  0  0  0
   -9.9559   14.4258   65.0024 C   0  0  0  0  0  0  0  0  0  0  0  0
  -12.1297    7.5718   73.3635 N   0  0  0  0  0  0  0  0  0  0  0  0
  -10.8219   17.4293   66.9239 N   0  0  0  0  0  0  0  0  0  0  0  0
  -10.3506   15.4335   65.9534 N   0  0  0  0  0  0  0  0  0  0  0  0
  -12.1270   15.3607   71.1948 N   0  0  0  0  0  0  0  0  0  0  0  0
  -11.5396   12.8751   69.9834 N   0  0  0  0  0  0  0  0  0  0  0  0
  -10.0574   17.4131   64.6768 O   0  0  0  0  0  0  0  0  0  0  0  0
  -12.0640   11.3488   68.3035 O   0  0  0  0  0  0  0  0  0  0  0  0
  1  2  2  0
  1  7  1  0
  2  9  1  0
  3  6  1  0
  3  7  2  0
  4 10  2  0
  4 11  1  0
  5 12  2  0
  5 13  1  0
  6  8  1  0
  6  9  2  0
  7 16  1  0
  8 14  2  0
  8 22  1  0
  9 26  1  0
 10 12  1  0
 10 27  1  0
 11 13  2  0
 11 29  1  0
 12 28  1  0
 13 30  1  0
 14 23  1  0
 14 26  1  0
 15 27  1  0
 15 28  1  0
 15 31  2  0
 16 30  1  0
 16 32  2  0
 17 18  1  0
 17 19  1  0
 18 20  1  0
 19 21  1  0
 20 29  1  0
 21 29  1  0
 24 27  1  0
 25 28  1  0
M  END
>  <idnumber>  (16) 
Z2005164171

>  <Chemgauss4>  (16) 
-12.7296447753906

>  <Hetero-Bemis-Murcko>  (16) 
c1[nH]c2cc(c(cc2[nH]1)N3CCCCC3)NCc4ccc5c(c4)cc[nH]5

>  <MW>  (16) 
431.54

>  <HBD>  (16) 
2

>  <HBA>  (16) 
5

>  <RotBonds>  (16) 
3

>  <XLogP>  (16) 
3.74799966812134

>  <sLogP>  (16) 
4.218

>  <TPSA>  (16) 
75.0599975585938

>  <FSP3>  (16) 
0.36

>  <QED>  (16) 
0.51

$$$$
Z2378046882
     RDKit          3D

 21 23  0  0  1  0  0  0  0  0999 V2000
  -13.3552   13.3114   72.0223 C   0  0  0  0  0  0  0  0  0  0  0  0
  -11.4741   14.5838   71.1979 C   0  0  0  0  0  0  0  0  0  0  0  0
  -13.5020   14.2120   73.0773 C   0  0  0  0  0  0  0  0  0  0  0  0
  -11.6209   15.4844   72.2529 C   0  0  0  0  0  0  0  0  0  0  0  0
  -10.8137   13.8382   66.8527 C   0  0  0  0  0  0  0  0  0  0  0  0
  -11.9553   14.5997   66.9374 C   0  0  0  0  0  0  0  0  0  0  0  0
  -12.3412   13.4973   71.0826 C   0  0  0  0  0  0  0  0  0  0  0  0
  -12.6349   15.2985   73.1926 C   0  0  0  0  0  0  0  0  0  0  0  0
  -11.7889   13.2051   68.6356 C   0  0  0  0  0  0  0  0  0  0  0  0
  -11.6537    8.2163   72.1359 C   0  0  0  0  0  0  0  0  0  0  0  0
  -10.7869    9.3064   71.4976 C   0  0  0  0  0  0  0  0  0  0  0  0
  -13.0544    9.8187   70.9561 C   0  0  0  0  0  0  0  0  0  0  0  0
  -13.1132    8.6739   71.9701 C   0  0  1  0  0  0  0  0  0  0  0  0
  -11.7335   10.4794   71.3061 C   0  0  2  0  0  0  0  0  0  0  0  0
  -14.0483    7.5533   71.5463 C   0  0  0  0  0  0  0  0  0  0  0  0
  -12.1811   12.5168   69.9323 C   0  0  1  0  0  0  0  0  0  0  0  0
  -10.7161   12.9718   67.9126 N   0  0  0  0  0  0  0  0  0  0  0  0
  -12.5699   14.1825   68.0844 N   0  0  0  0  0  0  0  0  0  0  0  0
  -13.9897    6.4711   72.5532 N   0  0  0  0  0  0  0  0  0  0  0  0
  -11.2747   11.3671   70.2239 N   0  0  0  0  0  0  0  0  0  0  0  0
  -12.7775   16.1649   74.2042 F   0  0  0  0  0  0  0  0  0  0  0  0
  1  3  2  0
  1  7  1  0
  2  4  1  0
  2  7  2  0
  3  8  1  0
  4  8  2  0
  5  6  2  0
  5 17  1  0
  6 18  1  0
  7 16  1  0
  8 21  1  0
  9 16  1  0
  9 17  2  0
  9 18  1  0
 10 11  1  0
 10 13  1  0
 11 14  1  0
 12 13  1  0
 12 14  1  0
 13 15  1  6
 14 20  1  6
 15 19  1  0
 16 20  1  1
M  CHG  2  19   1  20   1
M  END
>  <idnumber>  (17) 
Z2378046882

>  <Chemgauss4>  (17) 
-12.1862773895264

>  <Hetero-Bemis-Murcko>  (17) 
c1ccc(cc1)C(c2[nH]ccn2)[NH2+]C3CCCC3

>  <MW>  (17) 
288.37

>  <HBD>  (17) 
3

>  <HBA>  (17) 
3

>  <RotBonds>  (17) 
5

>  <XLogP>  (17) 
2.33699989318848

>  <sLogP>  (17) 
2.355

>  <TPSA>  (17) 
72.9300003051758

>  <FSP3>  (17) 
0.438

>  <QED>  (17) 
0.791

$$$$
Z3393549919
     RDKit          3D

 24 26  0  0  1  0  0  0  0  0999 V2000
  -12.9739    9.9767   71.6486 C   0  0  0  0  0  0  0  0  0  0  0  0
  -10.0013    8.1637   72.1256 C   0  0  0  0  0  0  0  0  0  0  0  0
  -12.1219    8.9865   72.1761 C   0  0  0  0  0  0  0  0  0  0  0  0
  -10.8943    9.1293   71.6329 C   0  0  0  0  0  0  0  0  0  0  0  0
  -10.7784    7.4291   73.0045 C   0  0  0  0  0  0  0  0  0  0  0  0
  -12.1446   10.6646   70.7908 C   0  0  0  0  0  0  0  0  0  0  0  0
  -10.3644    6.3080   73.7923 C   0  0  0  0  0  0  0  0  0  0  0  0
  -10.6794   16.3737   68.8318 C   0  0  0  0  0  0  0  0  0  0  0  0
  -11.6361   15.9568   71.0663 C   0  0  0  0  0  0  0  0  0  0  0  0
  -11.5615   14.1244   69.3299 C   0  0  0  0  0  0  0  0  0  0  0  0
  -12.6419   13.6925   71.5533 C   0  0  0  0  0  0  0  0  0  0  0  0
  -10.8529   15.3442   69.9056 C   0  0  1  0  0  0  0  0  0  0  0  0
  -11.9356   14.9122   72.1477 C   0  0  2  0  0  0  0  0  0  0  0  0
  -12.7802   15.5225   73.2649 C   0  0  0  0  0  0  0  0  0  0  0  0
  -10.1636    3.9122   73.8234 C   0  0  0  0  0  0  0  0  0  0  0  0
   -9.7903   18.5230   68.4148 C   0  0  0  0  0  0  0  0  0  0  0  0
  -12.3933   11.8441   69.8975 C   0  0  0  0  0  0  0  0  0  0  0  0
  -12.0660    7.9250   73.0379 N   0  0  0  0  0  0  0  0  0  0  0  0
  -11.8060   13.1220   70.4314 N   0  0  1  0  0  0  0  0  0  0  0  0
   -9.8925    6.3720   74.9495 O   0  0  0  0  0  0  0  0  0  0  0  0
  -11.0743   16.2375   67.6817 O   0  0  0  0  0  0  0  0  0  0  0  0
  -10.8717   10.1705   70.7605 O   0  0  0  0  0  0  0  0  0  0  0  0
  -10.5407    5.1103   73.1364 O   0  0  0  0  0  0  0  0  0  0  0  0
  -10.0248   17.4565   69.3398 O   0  0  0  0  0  0  0  0  0  0  0  0
  1  3  1  0
  1  6  2  0
  2  4  1  0
  2  5  2  0
  3  4  2  0
  3 18  1  0
  4 22  1  0
  5  7  1  0
  5 18  1  0
  6 17  1  0
  6 22  1  0
  7 20  2  0
  7 23  1  0
 12  8  1  6
  8 21  2  0
  8 24  1  0
  9 12  1  0
  9 13  1  0
 10 12  1  0
 10 19  1  0
 11 13  1  0
 11 19  1  0
 13 14  1  1
 15 23  1  0
 16 24  1  0
 19 17  1  6
M  CHG  1  19   1
M  END
>  <idnumber>  (18) 
Z3393549919

>  <Chemgauss4>  (18) 
-12.2377395629883

>  <Hetero-Bemis-Murcko>  (18) 
c1c[nH]c2c1oc(c2)C[NH+]3CCCCC3

>  <MW>  (18) 
334.372

>  <HBD>  (18) 
1

>  <HBA>  (18) 
6

>  <RotBonds>  (18) 
4

>  <XLogP>  (18) 
1.37199997901917

>  <sLogP>  (18) 
2.178

>  <TPSA>  (18) 
85.9700012207031

>  <FSP3>  (18) 
0.529

>  <QED>  (18) 
0.863

$$$$
Z739274814
     RDKit          3D

 31 34  0  0  1  0  0  0  0  0999 V2000
   -9.9046    5.0782   74.5354 C   0  0  0  0  0  0  0  0  0  0  0  0
  -11.5793   12.2902   63.1307 C   0  0  0  0  0  0  0  0  0  0  0  0
  -10.2610   11.8663   63.3134 C   0  0  0  0  0  0  0  0  0  0  0  0
   -9.9610    7.4187   73.8289 C   0  0  0  0  0  0  0  0  0  0  0  0
  -11.1991    5.7644   72.5768 C   0  0  0  0  0  0  0  0  0  0  0  0
  -10.4027    8.4113   72.9542 C   0  0  0  0  0  0  0  0  0  0  0  0
  -11.6409    6.7571   71.7021 C   0  0  0  0  0  0  0  0  0  0  0  0
  -12.9948   13.4809   71.8406 C   0  0  0  0  0  0  0  0  0  0  0  0
  -12.1854   15.7148   71.4027 C   0  0  0  0  0  0  0  0  0  0  0  0
  -12.3231   12.8134   64.1958 C   0  0  0  0  0  0  0  0  0  0  0  0
   -9.6385   11.9494   64.5633 C   0  0  0  0  0  0  0  0  0  0  0  0
  -12.9821   13.7448   73.2102 C   0  0  0  0  0  0  0  0  0  0  0  0
  -12.1727   15.9787   72.7723 C   0  0  0  0  0  0  0  0  0  0  0  0
  -10.3591    6.0952   73.6401 C   0  0  0  0  0  0  0  0  0  0  0  0
  -11.2427    8.0805   71.8908 C   0  0  0  0  0  0  0  0  0  0  0  0
  -12.5964   14.4660   70.9368 C   0  0  0  0  0  0  0  0  0  0  0  0
  -11.7136   12.9040   65.4586 C   0  0  0  0  0  0  0  0  0  0  0  0
  -10.3984   12.4736   65.6095 C   0  0  0  0  0  0  0  0  0  0  0  0
  -12.5711   14.9936   73.6761 C   0  0  0  0  0  0  0  0  0  0  0  0
  -11.2324   13.2329   67.5128 C   0  0  0  0  0  0  0  0  0  0  0  0
  -11.7089    9.1289   70.9661 C   0  0  0  0  0  0  0  0  0  0  0  0
  -11.1162   10.3213   70.8064 C   0  0  0  0  0  0  0  0  0  0  0  0
  -11.6719   11.3033   69.8320 C   0  0  0  0  0  0  0  0  0  0  0  0
  -12.6107   14.1804   69.4524 C   0  0  0  0  0  0  0  0  0  0  0  0
  -11.2558   13.5902   68.9435 C   0  0  1  0  0  0  0  0  0  0  0  0
   -9.5356    4.2524   75.2625 N   0  0  0  0  0  0  0  0  0  0  0  0
  -12.2150   13.3724   66.6513 N   0  0  0  0  0  0  0  0  0  0  0  0
  -10.1168   12.6957   66.9331 N   0  0  0  0  0  0  0  0  0  0  0  0
  -10.9233   12.4428   69.8266 N   0  0  0  0  0  0  0  0  0  0  0  0
  -12.6668   11.0688   69.1539 O   0  0  0  0  0  0  0  0  0  0  0  0
  -12.5600   15.2513   75.0125 O   0  0  0  0  0  0  0  0  0  0  0  0
  1 14  1  0
  1 26  3  0
  2  3  2  0
  2 10  1  0
  3 11  1  0
  4  6  2  0
  4 14  1  0
  5  7  1  0
  5 14  2  0
  6 15  1  0
  7 15  2  0
  8 12  2  0
  8 16  1  0
  9 13  1  0
  9 16  2  0
 10 17  2  0
 11 18  2  0
 12 19  1  0
 13 19  2  0
 15 21  1  0
 16 24  1  0
 17 18  1  0
 17 27  1  0
 18 28  1  0
 19 31  1  0
 20 25  1  0
 20 27  2  0
 20 28  1  0
 21 22  2  0
 22 23  1  0
 23 29  1  0
 23 30  2  0
 25 24  1  1
 25 29  1  0
M  END
>  <idnumber>  (19) 
Z739274814

>  <Chemgauss4>  (19) 
-12.1542100906372

>  <Hetero-Bemis-Murcko>  (19) 
c1ccc(cc1)CC(c2[nH]c3ccccc3n2)NCC=Cc4ccccc4

>  <MW>  (19) 
408.461

>  <HBD>  (19) 
3

>  <HBA>  (19) 
4

>  <RotBonds>  (19) 
6

>  <XLogP>  (19) 
4.09400033950806

>  <sLogP>  (19) 
4.254

>  <TPSA>  (19) 
101.799995422363

>  <FSP3>  (19) 
0.08

>  <QED>  (19) 
0.415

$$$$
Z2496618490
     RDKit          3D

 22 22  0  0  1  0  0  0  0  0999 V2000
  -11.5605   15.8364   71.6512 C   0  0  0  0  0  0  0  0  0  0  0  0
  -13.5742   14.5689   71.2326 C   0  0  0  0  0  0  0  0  0  0  0  0
  -12.1225   16.3422   72.8233 C   0  0  0  0  0  0  0  0  0  0  0  0
  -14.1363   15.0747   72.4047 C   0  0  0  0  0  0  0  0  0  0  0  0
  -12.2864   14.9497   70.8558 C   0  0  0  0  0  0  0  0  0  0  0  0
  -13.4104   15.9614   73.2001 C   0  0  0  0  0  0  0  0  0  0  0  0
  -12.2071   13.0087   69.2717 C   0  0  0  0  0  0  0  0  0  0  0  0
  -10.4664    6.6845   72.7566 C   0  0  0  0  0  0  0  0  0  0  0  0
  -12.0562    6.4770   70.1309 C   0  0  0  0  0  0  0  0  0  0  0  0
  -11.3534   16.6810   68.6407 C   0  0  0  0  0  0  0  0  0  0  0  0
  -11.3482   14.6974   67.1354 C   0  0  0  0  0  0  0  0  0  0  0  0
  -14.1896    8.2993   71.4172 C   0  0  0  0  0  0  0  0  0  0  0  0
  -11.6678    7.5447   72.3880 C   0  0  0  0  0  0  0  0  0  0  0  0
  -11.7256   10.6015   69.6797 C   0  0  0  0  0  0  0  0  0  0  0  0
  -12.6189   10.1349   70.8136 C   0  0  0  0  0  0  0  0  0  0  0  0
  -11.6767   14.3996   69.5857 C   0  0  1  0  0  0  0  0  0  0  0  0
  -11.8137    7.7795   70.8818 C   0  0  2  0  0  0  0  0  0  0  0  0
  -11.4169   12.0411   69.8296 N   0  0  0  0  0  0  0  0  0  0  0  0
  -11.8889   15.2959   68.4044 N   0  0  0  0  0  0  0  0  0  0  0  0
  -12.9695    8.6822   70.6203 N   0  0  1  0  0  0  0  0  0  0  0  0
  -13.2247   12.8240   68.6068 O   0  0  0  0  0  0  0  0  0  0  0  0
  -14.1034   16.5855   74.6461 Cl  0  0  0  0  0  0  0  0  0  0  0  0
  1  3  2  0
  1  5  1  0
  2  4  1  0
  2  5  2  0
  3  6  1  0
  4  6  2  0
  5 16  1  0
  6 22  1  0
 16  7  1  6
  7 18  1  0
  7 21  2  0
  8 13  1  0
 17  9  1  6
 10 19  1  0
 11 19  1  0
 20 12  1  1
 13 17  1  0
 14 15  1  0
 14 18  1  0
 15 20  1  0
 16 19  1  0
 17 20  1  0
M  CHG  2  19   1  20   1
M  END
>  <idnumber>  (20) 
Z2496618490

>  <Chemgauss4>  (20) 
-12.3500652313232

>  <Hetero-Bemis-Murcko>  (20) 
c1ccccc1

>  <MW>  (20) 
325.884

>  <HBD>  (20) 
1

>  <HBA>  (20) 
3

>  <RotBonds>  (20) 
8

>  <XLogP>  (20) 
3.42399978637695

>  <sLogP>  (20) 
2.789

>  <TPSA>  (20) 
37.9799995422363

>  <FSP3>  (20) 
0.588

>  <QED>  (20) 
0.798

$$$$
Z4058434373
     RDKit          3D

 26 29  0  0  1  0  0  0  0  0999 V2000
  -12.9510   16.3267   73.0753 C   0  0  0  0  0  0  0  0  0  0  0  0
  -12.3076   15.3057   73.7746 C   0  0  0  0  0  0  0  0  0  0  0  0
  -13.5974   16.0475   71.8711 C   0  0  0  0  0  0  0  0  0  0  0  0
  -12.3103   14.0054   73.2697 C   0  0  0  0  0  0  0  0  0  0  0  0
  -13.6001   14.7472   71.3662 C   0  0  0  0  0  0  0  0  0  0  0  0
  -12.7229   12.8774   65.3809 C   0  0  0  0  0  0  0  0  0  0  0  0
  -11.4526   12.4391   65.1478 C   0  0  0  0  0  0  0  0  0  0  0  0
  -12.9566   13.7262   72.0655 C   0  0  0  0  0  0  0  0  0  0  0  0
  -11.3960   12.1878   63.7792 C   0  0  0  0  0  0  0  0  0  0  0  0
  -10.2901   11.0738   66.8252 C   0  0  0  0  0  0  0  0  0  0  0  0
  -10.0867   11.7102   63.3289 C   0  0  0  0  0  0  0  0  0  0  0  0
  -10.5050   12.8366   68.6394 C   0  0  0  0  0  0  0  0  0  0  0  0
  -10.5087   10.4428   69.2053 C   0  0  0  0  0  0  0  0  0  0  0  0
  -11.7436   13.0587   69.4910 C   0  0  0  0  0  0  0  0  0  0  0  0
  -10.1775   12.1839   65.8108 C   0  0  1  0  0  0  0  0  0  0  0  0
  -11.7511   10.6112   70.0881 C   0  0  1  0  0  0  0  0  0  0  0  0
  -11.6296    7.1852   71.8848 C   0  0  0  0  0  0  0  0  0  0  0  0
  -12.9598   12.3279   71.5218 C   0  0  0  0  0  0  0  0  0  0  0  0
  -11.7026    9.6146   71.2442 C   0  0  0  0  0  0  0  0  0  0  0  0
  -11.7042    8.1772   70.7351 C   0  0  0  0  0  0  0  0  0  0  0  0
  -12.5299   12.4285   63.1356 N   0  0  0  0  0  0  0  0  0  0  0  0
  -13.3323   12.8516   64.1464 N   0  0  0  0  0  0  0  0  0  0  0  0
  -10.4459   11.4574   68.1571 N   0  0  0  0  0  0  0  0  0  0  0  0
   -9.2660   11.7220   64.6468 N   0  0  0  0  0  0  0  0  0  0  0  0
  -11.7870   12.0431   70.6159 N   0  0  2  0  0  0  0  0  0  0  0  0
  -10.2431    9.9017   66.4426 O   0  0  0  0  0  0  0  0  0  0  0  0
  1  2  2  0
  1  3  1  0
  2  4  1  0
  3  5  2  0
  4  8  2  0
  5  8  1  0
  6  7  2  0
  6 22  1  0
  7  9  1  0
  7 15  1  0
  8 18  1  0
  9 11  1  0
  9 21  2  0
 15 10  1  1
 10 23  1  0
 10 26  2  0
 11 24  1  0
 12 14  1  0
 12 23  1  0
 13 16  1  0
 13 23  1  0
 14 25  1  0
 15 24  1  0
 16 19  1  1
 16 25  1  0
 17 20  1  0
 25 18  1  6
 19 20  1  0
 21 22  1  0
M  CHG  2  24   1  25   1
M  END
>  <idnumber>  (21) 
Z4058434373

>  <Chemgauss4>  (21) 
-12.1857461929321

>  <Hetero-Bemis-Murcko>  (21) 
c1ccc(cc1)C[NH+]2CCN(CC2)CC3c4c[nH]nc4C[NH2+]3

>  <MW>  (21) 
353.47

>  <HBD>  (21) 
2

>  <HBA>  (21) 
4

>  <RotBonds>  (21) 
5

>  <XLogP>  (21) 
1.60099983215332

>  <sLogP>  (21) 
2.067

>  <TPSA>  (21) 
70.0400009155273

>  <FSP3>  (21) 
0.5

>  <QED>  (21) 
0.864

$$$$
Z2106345781
     RDKit          3D

 32 35  0  0  1  0  0  0  0  0999 V2000
  -10.2233   13.7103   67.9207 C   0  0  0  0  0  0  0  0  0  0  0  0
   -9.5782   14.9963   68.3281 C   0  0  0  0  0  0  0  0  0  0  0  0
  -13.5623   14.9091   73.1156 C   0  0  0  0  0  0  0  0  0  0  0  0
   -9.1050   20.3524   66.4121 C   0  0  0  0  0  0  0  0  0  0  0  0
  -12.2121   15.6172   73.0620 C   0  0  0  0  0  0  0  0  0  0  0  0
  -13.6832   13.8486   72.0257 C   0  0  0  0  0  0  0  0  0  0  0  0
   -9.7675   19.0607   65.9431 C   0  0  0  0  0  0  0  0  0  0  0  0
   -8.0327   20.0833   67.4633 C   0  0  0  0  0  0  0  0  0  0  0  0
  -11.9373   16.2022   71.6786 C   0  0  0  0  0  0  0  0  0  0  0  0
  -13.4106   14.4306   70.6405 C   0  0  0  0  0  0  0  0  0  0  0  0
  -10.3223   18.2543   67.1152 C   0  0  0  0  0  0  0  0  0  0  0  0
   -8.5845   19.2785   68.6378 C   0  0  0  0  0  0  0  0  0  0  0  0
   -9.6271   10.3414   68.9365 C   0  0  0  0  0  0  0  0  0  0  0  0
  -13.4663    9.4644   71.4957 C   0  0  0  0  0  0  0  0  0  0  0  0
  -12.1252    7.4141   70.8670 C   0  0  0  0  0  0  0  0  0  0  0  0
  -10.4451    9.0796   69.1480 C   0  0  0  0  0  0  0  0  0  0  0  0
  -13.9343    8.7602   72.7628 C   0  0  0  0  0  0  0  0  0  0  0  0
  -12.6009    6.7227   72.1381 C   0  0  0  0  0  0  0  0  0  0  0  0
  -11.7117   11.0725   69.7873 C   0  0  0  0  0  0  0  0  0  0  0  0
  -12.0492   15.1363   70.5802 C   0  0  0  0  0  0  0  0  0  0  0  0
   -9.2441   17.9740   68.1708 C   0  0  0  0  0  0  0  0  0  0  0  0
  -10.6744   11.4236   68.7384 C   0  0  1  0  0  0  0  0  0  0  0  0
  -12.1125    8.9302   71.0378 C   0  0  1  0  0  0  0  0  0  0  0  0
  -15.0945    6.7617   71.7460 C   0  0  0  0  0  0  0  0  0  0  0  0
  -11.8232   15.7557   69.2024 C   0  0  0  0  0  0  0  0  0  0  0  0
   -9.8349   17.2135   69.3565 C   0  0  0  0  0  0  0  0  0  0  0  0
  -10.1512   12.7485   68.9034 N   0  0  0  0  0  0  0  0  0  0  0  0
  -10.4000   15.9405   68.9349 N   0  0  0  0  0  0  0  0  0  0  0  0
  -11.7590    9.5600   69.7383 N   0  0  2  0  0  0  0  0  0  0  0  0
  -13.9425    7.2614   72.5756 N   0  0  2  0  0  0  0  0  0  0  0  0
  -10.7059   13.6403   66.8019 O   0  0  0  0  0  0  0  0  0  0  0  0
   -8.3826   15.0924   68.0780 O   0  0  0  0  0  0  0  0  0  0  0  0
  1  2  1  0
  1 27  1  0
  1 31  2  0
  2 28  1  0
  2 32  2  0
  3  5  1  0
  3  6  1  0
  4  7  1  0
  4  8  1  0
  5  9  1  0
  6 10  1  0
  7 11  1  0
  8 12  1  0
  9 20  1  0
 10 20  1  0
 11 21  1  0
 12 21  1  0
 13 16  1  0
 13 22  1  0
 14 17  1  0
 23 14  1  6
 15 18  1  0
 15 23  1  0
 29 16  1  1
 17 30  1  0
 18 30  1  0
 19 22  1  0
 19 29  1  0
 20 25  1  0
 21 26  1  0
 22 27  1  1
 23 29  1  0
 30 24  1  6
 25 28  1  0
 26 28  1  0
M  CHG  2  29   1  30   1
M  END
>  <idnumber>  (22) 
Z2106345781

>  <Chemgauss4>  (22) 
-12.3881196975708

>  <Hetero-Bemis-Murcko>  (22) 
C1CCC(CC1)CN(CCNC2CC[NH+](C2)C3CC[NH2+]CC3)CC4CCCCC4

>  <MW>  (22) 
446.68

>  <HBD>  (22) 
1

>  <HBA>  (22) 
4

>  <RotBonds>  (22) 
6

>  <XLogP>  (22) 
4.00999975204468

>  <sLogP>  (22) 
3.26

>  <TPSA>  (22) 
58.2900009155273

>  <FSP3>  (22) 
0.923

>  <QED>  (22) 
0.637

$$$$
s_2708____13037140____17550982
     RDKit          3D

 24 25  0  0  1  0  0  0  0  0999 V2000
  -13.7189    9.5554   71.5193 C   0  0  0  0  0  0  0  0  0  0  0  0
  -12.4016    9.1655   71.2122 C   0  0  0  0  0  0  0  0  0  0  0  0
  -12.0962    8.2149   72.1554 C   0  0  0  0  0  0  0  0  0  0  0  0
  -12.1577   12.0470   69.6361 C   0  0  0  0  0  0  0  0  0  0  0  0
  -12.0692   16.5552   72.6799 C   0  0  0  0  0  0  0  0  0  0  0  0
  -11.6216   15.8318   71.4137 C   0  0  0  0  0  0  0  0  0  0  0  0
  -13.0614   15.7063   73.4630 C   0  0  0  0  0  0  0  0  0  0  0  0
  -13.7848   14.5620   71.5181 C   0  0  0  0  0  0  0  0  0  0  0  0
  -12.8350   15.3485   70.6110 C   0  0  2  0  0  0  0  0  0  0  0  0
  -10.6717   15.4379   66.2838 C   0  0  0  0  0  0  0  0  0  0  0  0
  -11.5299    9.6773   70.1021 C   0  0  0  0  0  0  0  0  0  0  0  0
  -11.4917   15.3144   68.4827 C   0  0  0  0  0  0  0  0  0  0  0  0
  -12.4040   14.5152   69.4091 C   0  0  1  0  0  0  0  0  0  0  0  0
  -10.8836    7.4140   72.3946 C   0  0  0  0  0  0  0  0  0  0  0  0
  -14.2162    8.9056   72.5750 N   0  0  0  0  0  0  0  0  0  0  0  0
  -13.2060    8.0976   72.9393 N   0  0  0  0  0  0  0  0  0  0  0  0
  -11.3072   11.1012   70.2023 N   0  0  0  0  0  0  0  0  0  0  0  0
  -11.7063   13.3378   69.8851 N   0  0  0  0  0  0  0  0  0  0  0  0
  -13.1752   11.7759   68.9998 O   0  0  0  0  0  0  0  0  0  0  0  0
  -14.1747   15.3481   72.6452 O   0  0  0  0  0  0  0  0  0  0  0  0
  -11.5138   14.7323   67.1843 O   0  0  0  0  0  0  0  0  0  0  0  0
   -9.8603    7.6584   71.5115 F   0  0  0  0  0  0  0  0  0  0  0  0
  -10.3163    7.6026   73.6312 F   0  0  0  0  0  0  0  0  0  0  0  0
  -11.1002    6.0615   72.3124 F   0  0  0  0  0  0  0  0  0  0  0  0
  1  2  1  0
  1 15  2  0
  2  3  2  0
  2 11  1  0
  3 14  1  0
  3 16  1  0
  4 17  1  0
  4 18  1  0
  4 19  2  0
  5  6  1  0
  5  7  1  0
  9  6  1  1
  7 20  1  0
  8  9  1  0
  8 20  1  0
  9 13  1  0
 10 21  1  0
 11 17  1  0
 13 12  1  6
 12 21  1  0
 13 18  1  0
 14 22  1  0
 14 23  1  0
 14 24  1  0
 15 16  1  0
M  END
>  <idnumber>  (23) 
s_2708____13037140____17550982

>  <Chemgauss4>  (23) 
-12.5960159301758

>  <Hetero-Bemis-Murcko>  (23) 
c1c(cn[nH]1)CNCNCC2CCCOC2

>  <MW>  (23) 
350.341

>  <HBD>  (23) 
3

>  <HBA>  (23) 
4

>  <RotBonds>  (23) 
6

>  <XLogP>  (23) 
0.888999819755554

>  <sLogP>  (23) 
1.669

>  <TPSA>  (23) 
88.2699890136719

>  <FSP3>  (23) 
0.714

>  <QED>  (23) 
0.728

$$$$
Z1844242689
     RDKit          3D

 21 23  0  0  1  0  0  0  0  0999 V2000
  -11.9946   14.0715   66.5528 C   0  0  0  0  0  0  0  0  0  0  0  0
  -12.6298   13.8205   65.3366 C   0  0  0  0  0  0  0  0  0  0  0  0
  -10.3991   12.3197   66.0812 C   0  0  0  0  0  0  0  0  0  0  0  0
  -13.3949   14.0075   71.7553 C   0  0  0  0  0  0  0  0  0  0  0  0
  -10.8792   13.3212   66.9250 C   0  0  0  0  0  0  0  0  0  0  0  0
  -12.1497   12.8190   64.4927 C   0  0  0  0  0  0  0  0  0  0  0  0
  -11.0343   12.0686   64.8650 C   0  0  0  0  0  0  0  0  0  0  0  0
  -12.4034   14.7145   71.1079 C   0  0  0  0  0  0  0  0  0  0  0  0
  -12.7418   15.2666   73.4280 C   0  0  0  0  0  0  0  0  0  0  0  0
  -11.2203   10.8573   69.1074 C   0  0  0  0  0  0  0  0  0  0  0  0
  -11.8740   11.1713   70.4233 C   0  0  0  0  0  0  0  0  0  0  0  0
  -11.9334   12.1653   69.2988 C   0  0  0  0  0  0  0  0  0  0  0  0
   -9.5711   11.4645   63.0903 C   0  0  0  0  0  0  0  0  0  0  0  0
  -10.1943   13.5929   68.2320 C   0  0  0  0  0  0  0  0  0  0  0  0
  -11.9320   14.6253   69.6863 C   0  0  0  0  0  0  0  0  0  0  0  0
  -13.5902   14.3225   73.0859 N   0  0  0  0  0  0  0  0  0  0  0  0
  -12.6626   15.8112   74.6713 N   0  0  0  0  0  0  0  0  0  0  0  0
  -11.0959   13.4064   69.4189 N   0  0  1  0  0  0  0  0  0  0  0  0
  -12.7792   12.5836   63.3076 O   0  0  0  0  0  0  0  0  0  0  0  0
  -10.5568   11.0873   64.0496 O   0  0  0  0  0  0  0  0  0  0  0  0
  -11.6808   15.8227   72.1992 S   0  0  0  0  0  0  0  0  0  0  0  0
  1  2  2  0
  1  5  1  0
  2  6  1  0
  3  5  2  0
  3  7  1  0
  4  8  2  0
  4 16  1  0
  5 14  1  0
  6  7  2  0
  6 19  1  0
  7 20  1  0
  8 15  1  0
  8 21  1  0
  9 16  2  0
  9 17  1  0
  9 21  1  0
 10 11  1  0
 10 12  1  0
 11 12  1  0
 12 18  1  0
 13 20  1  0
 18 14  1  6
 15 18  1  0
M  CHG  1  18   1
M  END
>  <idnumber>  (24) 
Z1844242689

>  <Chemgauss4>  (24) 
-12.2715339660645

>  <Hetero-Bemis-Murcko>  (24) 
c1ccc(cc1)C[NH+](Cc2cncs2)C3CC3

>  <MW>  (24) 
305.403

>  <HBD>  (24) 
2

>  <HBA>  (24) 
6

>  <RotBonds>  (24) 
6

>  <XLogP>  (24) 
1.94900012016296

>  <sLogP>  (24) 
2.604

>  <TPSA>  (24) 
72.8099975585938

>  <FSP3>  (24) 
0.4

>  <QED>  (24) 
0.858

$$$$
Z1272457281
     RDKit          3D

 22 25  0  0  0  0  0  0  0  0999 V2000
  -12.3354   14.4054   73.2088 C   0  0  0  0  0  0  0  0  0  0  0  0
  -11.2739   14.7871   72.3802 C   0  0  0  0  0  0  0  0  0  0  0  0
  -13.6517   14.4673   72.7558 C   0  0  0  0  0  0  0  0  0  0  0  0
  -10.0282   10.7791   69.9457 C   0  0  0  0  0  0  0  0  0  0  0  0
  -11.5852   16.0035   68.9474 C   0  0  0  0  0  0  0  0  0  0  0  0
  -11.8994   12.9728   67.1581 C   0  0  0  0  0  0  0  0  0  0  0  0
  -11.5495   15.2380   71.0740 C   0  0  0  0  0  0  0  0  0  0  0  0
  -10.4496   11.7460   69.0141 C   0  0  0  0  0  0  0  0  0  0  0  0
  -13.9493   14.9112   71.4642 C   0  0  0  0  0  0  0  0  0  0  0  0
  -10.7451   15.6916   69.9913 C   0  0  0  0  0  0  0  0  0  0  0  0
  -12.8782   15.2895   70.6470 C   0  0  0  0  0  0  0  0  0  0  0  0
  -11.6187   11.2250   68.4881 C   0  0  0  0  0  0  0  0  0  0  0  0
  -10.0328   12.9807   68.5281 C   0  0  0  0  0  0  0  0  0  0  0  0
  -15.3703   14.9648   71.0111 C   0  0  0  0  0  0  0  0  0  0  0  0
   -9.2729   15.8107   69.9800 C   0  0  0  0  0  0  0  0  0  0  0  0
   -8.5847   14.9819   68.8802 C   0  0  0  0  0  0  0  0  0  0  0  0
  -10.8552    9.7298   70.0109 N   0  0  0  0  0  0  0  0  0  0  0  0
  -12.4028   11.7832   67.5522 N   0  0  0  0  0  0  0  0  0  0  0  0
  -10.7767   13.6012   67.5812 N   0  0  0  0  0  0  0  0  0  0  0  0
  -12.8697   15.7580   69.3525 N   0  0  0  0  0  0  0  0  0  0  0  0
  -11.8127   10.0294   69.1136 N   0  0  0  0  0  0  0  0  0  0  0  0
   -8.8712   13.5775   69.0004 N   0  0  0  0  0  0  0  0  0  0  0  0
  1  2  2  0
  1  3  1  0
  2  7  1  0
  3  9  2  0
  4  8  1  0
  4 17  2  0
  5 10  2  0
  5 20  1  0
  6 18  2  0
  6 19  1  0
  7 10  1  0
  7 11  2  0
  8 12  2  0
  8 13  1  0
  9 11  1  0
  9 14  1  0
 10 15  1  0
 11 20  1  0
 12 18  1  0
 12 21  1  0
 13 19  2  0
 13 22  1  0
 15 16  1  0
 16 22  1  0
 17 21  1  0
M  END
>  <idnumber>  (25) 
Z1272457281

>  <Chemgauss4>  (25) 
-12.3089914321899

>  <Hetero-Bemis-Murcko>  (25) 
c1ccc2c(c1)c(c[nH]2)CCNc3c4cn[nH]c4ncn3

>  <MW>  (25) 
292.346

>  <HBD>  (25) 
3

>  <HBA>  (25) 
4

>  <RotBonds>  (25) 
4

>  <XLogP>  (25) 
2.35199975967407

>  <sLogP>  (25) 
2.797

>  <TPSA>  (25) 
82.2799987792969

>  <FSP3>  (25) 
0.188

>  <QED>  (25) 
0.54

$$$$
s_22____13579642____5054086
     RDKit          3D

 24 24  0  0  1  0  0  0  0  0999 V2000
  -11.9747   11.3748   69.5028 C   0  0  0  0  0  0  0  0  0  0  0  0
  -11.0970   14.2644   67.1966 C   0  0  0  0  0  0  0  0  0  0  0  0
  -12.8889   14.9292   73.6271 C   0  0  0  0  0  0  0  0  0  0  0  0
  -14.0636   14.4102   72.8038 C   0  0  0  0  0  0  0  0  0  0  0  0
  -11.9720   15.8212   72.7961 C   0  0  0  0  0  0  0  0  0  0  0  0
  -13.5932   13.7022   71.5352 C   0  0  0  0  0  0  0  0  0  0  0  0
  -11.4982   15.1158   71.5273 C   0  0  0  0  0  0  0  0  0  0  0  0
  -12.6775   14.5998   70.6919 C   0  0  0  0  0  0  0  0  0  0  0  0
  -10.4722    9.3342   67.7445 C   0  0  0  0  0  0  0  0  0  0  0  0
  -10.3807    8.3223   72.1769 C   0  0  0  0  0  0  0  0  0  0  0  0
  -13.8673    8.2010   71.6787 C   0  0  0  0  0  0  0  0  0  0  0  0
  -12.5934   12.3368   65.2146 C   0  0  0  0  0  0  0  0  0  0  0  0
  -11.2426   14.7384   68.6281 C   0  0  0  0  0  0  0  0  0  0  0  0
   -9.9899    9.8352   69.1009 C   0  0  0  0  0  0  0  0  0  0  0  0
  -11.1096    7.9204   70.9134 C   0  0  0  0  0  0  0  0  0  0  0  0
  -13.0269    9.4300   71.4095 C   0  0  0  0  0  0  0  0  0  0  0  0
  -12.3569   13.8318   65.2408 C   0  0  0  0  0  0  0  0  0  0  0  0
  -11.1042   10.2611   70.0629 C   0  0  2  0  0  0  0  0  0  0  0  0
  -12.1777   13.8521   69.4572 C   0  0  1  0  0  0  0  0  0  0  0  0
  -11.5167   12.6332   69.8626 N   0  0  0  0  0  0  0  0  0  0  0  0
  -11.9382    9.0813   70.4281 N   0  0  0  0  0  0  0  0  0  0  0  0
  -12.9700   11.1572   68.8152 O   0  0  0  0  0  0  0  0  0  0  0  0
  -10.0497   13.9145   66.6703 O   0  0  0  0  0  0  0  0  0  0  0  0
  -12.3269   14.2753   66.6012 O   0  0  0  0  0  0  0  0  0  0  0  0
  1 18  1  0
  1 20  1  0
  1 22  2  0
  2 13  1  0
  2 23  2  0
  2 24  1  0
  3  4  1  0
  3  5  1  0
  4  6  1  0
  5  7  1  0
  6  8  1  0
  7  8  1  0
  8 19  1  0
  9 14  1  0
 10 15  1  0
 11 16  1  0
 12 17  1  0
 19 13  1  1
 18 14  1  6
 15 21  1  0
 16 21  1  0
 17 24  1  0
 18 21  1  0
 19 20  1  0
M  CHG  1  21   1
M  END
>  <idnumber>  (26) 
s_22____13579642____5054086

>  <Chemgauss4>  (26) 
-12.3681755065918

>  <Hetero-Bemis-Murcko>  (26) 
C1CCCCC1

>  <MW>  (26) 
340.508

>  <HBD>  (26) 
1

>  <HBA>  (26) 
4

>  <RotBonds>  (26) 
10

>  <XLogP>  (26) 
4.17199993133545

>  <sLogP>  (26) 
3.125

>  <TPSA>  (26) 
59.8399963378906

>  <FSP3>  (26) 
0.895

>  <QED>  (26) 
0.621

$$$$
Z2910799158
     RDKit          3D

 27 29  0  0  1  0  0  0  0  0999 V2000
  -11.5934   15.8334   73.2630 C   0  0  0  0  0  0  0  0  0  0  0  0
  -12.8380   16.2958   73.6905 C   0  0  0  0  0  0  0  0  0  0  0  0
  -11.4988   15.0435   72.1172 C   0  0  0  0  0  0  0  0  0  0  0  0
  -13.9880   15.9682   72.9723 C   0  0  0  0  0  0  0  0  0  0  0  0
  -12.6488   14.7159   71.3990 C   0  0  0  0  0  0  0  0  0  0  0  0
  -13.8934   15.1783   71.8265 C   0  0  0  0  0  0  0  0  0  0  0  0
  -11.5059   16.2125   64.7887 C   0  0  0  0  0  0  0  0  0  0  0  0
  -11.6437   14.5046   69.1125 C   0  0  0  0  0  0  0  0  0  0  0  0
  -11.8145   12.5106   64.6098 C   0  0  0  0  0  0  0  0  0  0  0  0
  -10.4903   13.2561   64.7314 C   0  0  0  0  0  0  0  0  0  0  0  0
  -12.9922   13.4746   64.5203 C   0  0  0  0  0  0  0  0  0  0  0  0
  -10.4925   14.2251   65.9143 C   0  0  0  0  0  0  0  0  0  0  0  0
  -13.0198   14.4461   65.7009 C   0  0  0  0  0  0  0  0  0  0  0  0
  -11.8942   11.6474   69.1918 C   0  0  0  0  0  0  0  0  0  0  0  0
  -12.9390   11.7551   71.4453 C   0  0  0  0  0  0  0  0  0  0  0  0
  -11.3509   10.2826   69.5797 C   0  0  0  0  0  0  0  0  0  0  0  0
  -12.3423   10.3845   71.7165 C   0  0  0  0  0  0  0  0  0  0  0  0
  -11.6900   15.1792   65.8984 C   0  0  0  0  0  0  0  0  0  0  0  0
  -11.7209   16.0440   67.1588 C   0  0  0  0  0  0  0  0  0  0  0  0
  -12.5420   13.8593   70.1571 C   0  0  1  0  0  0  0  0  0  0  0  0
  -12.3406   15.3234   68.2172 N   0  0  0  0  0  0  0  0  0  0  0  0
  -12.0556   12.4689   70.4492 N   0  0  0  0  0  0  0  0  0  0  0  0
  -10.9012   17.2669   65.1288 O   0  0  0  0  0  0  0  0  0  0  0  0
  -11.9844   15.8779   63.6687 O   0  0  0  0  0  0  0  0  0  0  0  0
  -10.4284   14.3206   69.0816 O   0  0  0  0  0  0  0  0  0  0  0  0
  -12.2289    9.6383   70.5039 O   0  0  0  0  0  0  0  0  0  0  0  0
  -15.0040   14.8690   71.1428 F   0  0  0  0  0  0  0  0  0  0  0  0
  1  2  2  0
  1  3  1  0
  2  4  1  0
  3  5  2  0
  4  6  2  0
  5  6  1  0
  5 20  1  0
  6 27  1  0
  7 18  1  0
  7 23  1  0
  7 24  2  0
 20  8  1  6
  8 21  1  0
  8 25  2  0
  9 10  1  0
  9 11  1  0
 10 12  1  0
 11 13  1  0
 12 18  1  0
 13 18  1  0
 14 16  1  0
 14 22  1  0
 15 17  1  0
 15 22  1  0
 16 26  1  0
 17 26  1  0
 18 19  1  0
 19 21  1  0
 20 22  1  0
M  CHG  2  22   1  23  -1
M  END
>  <idnumber>  (27) 
Z2910799158

>  <Chemgauss4>  (27) 
-12.1791362762451

>  <Hetero-Bemis-Murcko>  (27) 
c1ccc(cc1)C(CNCC2CCCCC2)[NH+]3CCOCC3

>  <MW>  (27) 
378.444

>  <HBD>  (27) 
2

>  <HBA>  (27) 
4

>  <RotBonds>  (27) 
6

>  <XLogP>  (27) 
1.97599995136261

>  <sLogP>  (27) 
2.35

>  <TPSA>  (27) 
82.8999938964844

>  <FSP3>  (27) 
0.6

>  <QED>  (27) 
0.794

$$$$
Z2568519118
     RDKit          3D

 22 23  0  0  1  0  0  0  0  0999 V2000
  -13.3368   10.0756   71.1535 C   0  0  0  0  0  0  0  0  0  0  0  0
  -13.8098    9.3284   72.1653 C   0  0  0  0  0  0  0  0  0  0  0  0
  -11.9224    9.5795   71.0418 C   0  0  0  0  0  0  0  0  0  0  0  0
  -11.5438   11.1169   69.3900 C   0  0  0  0  0  0  0  0  0  0  0  0
  -12.0913   15.8529   69.2898 C   0  0  0  0  0  0  0  0  0  0  0  0
  -11.2851   16.0818   70.5711 C   0  0  0  0  0  0  0  0  0  0  0  0
  -12.0688   14.3550   69.6375 C   0  0  1  0  0  0  0  0  0  0  0  0
  -11.0403    5.6866   71.5644 C   0  0  0  0  0  0  0  0  0  0  0  0
   -9.3425    5.9570   73.3999 C   0  0  0  0  0  0  0  0  0  0  0  0
  -12.1375   15.2711   73.2892 C   0  0  0  0  0  0  0  0  0  0  0  0
  -13.8396   15.4668   71.4392 C   0  0  0  0  0  0  0  0  0  0  0  0
  -13.0587   13.1927   72.1985 C   0  0  0  0  0  0  0  0  0  0  0  0
  -11.0698   13.5037   68.8690 C   0  0  0  0  0  0  0  0  0  0  0  0
  -10.4877    8.0106   72.4395 C   0  0  0  0  0  0  0  0  0  0  0  0
  -10.6200    6.5203   72.7757 C   0  0  0  0  0  0  0  0  0  0  0  0
  -12.6697   14.6563   71.9955 C   0  0  0  0  0  0  0  0  0  0  0  0
  -11.0926   10.0924   70.1955 N   0  0  0  0  0  0  0  0  0  0  0  0
  -12.8707    8.4703   72.6738 N   0  0  0  0  0  0  0  0  0  0  0  0
  -11.7264    8.5624   71.9664 N   0  0  0  0  0  0  0  0  0  0  0  0
  -10.8104   12.2890   69.5741 N   0  0  0  0  0  0  0  0  0  0  0  0
  -11.5742   14.6974   70.9919 N   0  0  2  0  0  0  0  0  0  0  0  0
  -12.4806   11.0464   68.5945 O   0  0  0  0  0  0  0  0  0  0  0  0
  1  2  2  0
  1  3  1  0
  2 18  1  0
  3 17  2  0
  3 19  1  0
  4 17  1  0
  4 20  1  0
  4 22  2  0
  5  6  1  0
  5  7  1  0
  6 21  1  0
  7 13  1  6
  7 21  1  0
  8 15  1  0
  9 15  1  0
 10 16  1  0
 11 16  1  0
 12 16  1  0
 13 20  1  0
 14 15  1  0
 14 19  1  0
 21 16  1  1
 18 19  1  0
M  CHG  1  21   1
M  END
>  <idnumber>  (28) 
Z2568519118

>  <Chemgauss4>  (28) 
-13.3279485702515

>  <Hetero-Bemis-Murcko>  (28) 
c1c[nH][nH]c1=NCNCC2CC[NH2+]2

>  <MW>  (28) 
307.442

>  <HBD>  (28) 
2

>  <HBA>  (28) 
3

>  <RotBonds>  (28) 
4

>  <XLogP>  (28) 
2.37599992752075

>  <sLogP>  (28) 
1.955

>  <TPSA>  (28) 
66.6199951171875

>  <FSP3>  (28) 
0.75

>  <QED>  (28) 
0.893

$$$$
Z1955200410
     RDKit          3D

 19 21  0  0  1  0  0  0  0  0999 V2000
  -12.2029   12.4617   65.8949 C   0  0  0  0  0  0  0  0  0  0  0  0
  -12.5458   12.5909   64.5491 C   0  0  0  0  0  0  0  0  0  0  0  0
  -11.1418   14.6313   65.8329 C   0  0  0  0  0  0  0  0  0  0  0  0
  -11.5010   13.4820   66.5368 C   0  0  0  0  0  0  0  0  0  0  0  0
  -12.1866   13.7403   63.8451 C   0  0  0  0  0  0  0  0  0  0  0  0
  -11.4846   14.7605   64.4870 C   0  0  0  0  0  0  0  0  0  0  0  0
  -12.0941   15.5156   73.1938 C   0  0  0  0  0  0  0  0  0  0  0  0
  -13.2954   16.1071   73.0646 C   0  0  0  0  0  0  0  0  0  0  0  0
  -12.5665   14.1864   71.2230 C   0  0  0  0  0  0  0  0  0  0  0  0
  -11.1377   13.3452   67.9712 C   0  0  0  0  0  0  0  0  0  0  0  0
  -13.6729   13.8279   73.2104 C   0  0  0  0  0  0  0  0  0  0  0  0
  -12.2500   14.0975   72.6827 C   0  0  0  0  0  0  0  0  0  0  0  0
  -14.2337   15.0674   72.4994 C   0  0  0  0  0  0  0  0  0  0  0  0
  -13.7644   14.7878   71.1182 N   0  0  0  0  0  0  0  0  0  0  0  0
  -12.0627   13.8223   68.8768 N   0  0  0  0  0  0  0  0  0  0  0  0
  -11.7450   13.7310   70.2992 N   0  0  0  0  0  0  0  0  0  0  0  0
  -10.0588   12.8458   68.2793 O   0  0  0  0  0  0  0  0  0  0  0  0
  -12.5273   13.8544   62.5310 O   0  0  0  0  0  0  0  0  0  0  0  0
  -11.1302   15.8889   63.8111 O   0  0  0  0  0  0  0  0  0  0  0  0
  1  2  2  0
  1  4  1  0
  2  5  1  0
  3  4  2  0
  3  6  1  0
  4 10  1  0
  5  6  2  0
  5 18  1  0
  6 19  1  0
  7  8  2  0
  7 12  1  0
  8 13  1  0
  9 12  1  0
  9 14  1  0
  9 16  2  0
 10 15  1  0
 10 17  2  0
 11 12  1  0
 11 13  1  0
 13 14  1  0
 15 16  1  0
M  CHG  1  16   1
M  END
>  <idnumber>  (29) 
Z1955200410

>  <Chemgauss4>  (29) 
-12.7924251556396

>  <Hetero-Bemis-Murcko>  (29) 
c1ccc(cc1)CN[NH+]=C2C3CC(N2)C=C3

>  <MW>  (29) 
259.265

>  <HBD>  (29) 
4

>  <HBA>  (29) 
4

>  <RotBonds>  (29) 
2

>  <XLogP>  (29) 
1.06299996376038

>  <sLogP>  (29) 
0.689

>  <TPSA>  (29) 
95.5599975585938

>  <FSP3>  (29) 
0.231

>  <QED>  (29) 
0.357

$$$$
Z1952552556
     RDKit          3D

 32 36  0  0  1  0  0  0  0  0999 V2000
  -10.0888   19.9448   67.1079 C   0  0  0  0  0  0  0  0  0  0  0  0
  -10.5663   18.8530   67.8242 C   0  0  0  0  0  0  0  0  0  0  0  0
   -8.8311   19.8450   66.5351 C   0  0  0  0  0  0  0  0  0  0  0  0
   -8.5387   17.7108   67.3337 C   0  0  0  0  0  0  0  0  0  0  0  0
   -9.4907   15.6337   69.3738 C   0  0  0  0  0  0  0  0  0  0  0  0
   -9.7826   17.7107   67.9441 C   0  0  0  0  0  0  0  0  0  0  0  0
  -10.2598   16.5369   68.6960 C   0  0  0  0  0  0  0  0  0  0  0  0
  -11.6090   15.0316   69.5984 C   0  0  0  0  0  0  0  0  0  0  0  0
  -12.0648   11.9279   70.3537 C   0  0  0  0  0  0  0  0  0  0  0  0
  -11.4854    5.4511   72.0571 C   0  0  0  0  0  0  0  0  0  0  0  0
  -10.7895    9.9219   70.9616 C   0  0  0  0  0  0  0  0  0  0  0  0
  -13.3036    9.9809   71.1952 C   0  0  0  0  0  0  0  0  0  0  0  0
  -10.2692    3.6620   73.4369 C   0  0  0  0  0  0  0  0  0  0  0  0
  -10.9017    4.6116   74.4092 C   0  0  0  0  0  0  0  0  0  0  0  0
  -10.7407    8.6382   71.7878 C   0  0  0  0  0  0  0  0  0  0  0  0
  -13.2596    8.6965   72.0204 C   0  0  0  0  0  0  0  0  0  0  0  0
  -13.8317   15.1326   70.8284 C   0  0  0  0  0  0  0  0  0  0  0  0
  -13.1255   13.2948   72.2094 C   0  0  0  0  0  0  0  0  0  0  0  0
  -12.8594   14.2722   70.0066 C   0  0  2  0  0  0  0  0  0  0  0  0
  -12.0042   10.7672   71.3282 C   0  0  2  0  0  0  0  0  0  0  0  0
  -11.5360    4.3660   73.0809 C   0  0  0  0  0  0  0  0  0  0  0  0
  -12.0416    7.8394   71.6649 C   0  0  2  0  0  0  0  0  0  0  0  0
  -13.5376   14.7586   72.2798 C   0  0  1  0  0  0  0  0  0  0  0  0
  -12.4550   15.5846   74.1932 C   0  0  0  0  0  0  0  0  0  0  0  0
   -8.0410   18.7522   66.6299 N   0  0  0  0  0  0  0  0  0  0  0  0
  -10.3514   14.7139   69.9227 N   0  0  0  0  0  0  0  0  0  0  0  0
  -11.5660   16.1397   68.8517 N   0  0  0  0  0  0  0  0  0  0  0  0
  -12.6101   13.1022   70.8539 N   0  0  0  0  0  0  0  0  0  0  0  0
  -11.9956    6.6585   72.4927 N   0  0  0  0  0  0  0  0  0  0  0  0
  -11.6388   11.7982   69.2048 O   0  0  0  0  0  0  0  0  0  0  0  0
  -11.0164    5.2155   70.9497 O   0  0  0  0  0  0  0  0  0  0  0  0
  -12.4689   15.5546   72.7730 O   0  0  0  0  0  0  0  0  0  0  0  0
  1  2  2  0
  1  3  1  0
  2  6  1  0
  3 25  2  0
  4  6  2  0
  4 25  1  0
  5  7  2  0
  5 26  1  0
  6  7  1  0
  7 27  1  0
 19  8  1  1
  8 26  1  0
  8 27  2  0
 20  9  1  6
  9 28  1  0
  9 30  2  0
 10 21  1  0
 10 29  1  0
 10 31  2  0
 11 15  1  0
 11 20  1  0
 12 16  1  0
 12 20  1  0
 13 14  1  0
 13 21  1  0
 14 21  1  0
 15 22  1  0
 16 22  1  0
 17 19  1  0
 17 23  1  0
 18 23  1  0
 18 28  1  0
 19 28  1  0
 22 29  1  1
 23 32  1  6
 24 32  1  0
M  CHG  1  27   1
M  END
>  <idnumber>  (30) 
Z1952552556

>  <Chemgauss4>  (30) 
-12.6074991226196

>  <Hetero-Bemis-Murcko>  (30) 
c1cc(cnc1)c2c[nH]c([nH+]2)C3CCCN3CC4CCC(CC4)NCC5CC5

>  <MW>  (30) 
437.544

>  <HBD>  (30) 
2

>  <HBA>  (30) 
5

>  <RotBonds>  (30) 
6

>  <XLogP>  (30) 
1.43799984455109

>  <sLogP>  (30) 
2.845

>  <TPSA>  (30) 
101.459999084473

>  <FSP3>  (30) 
0.583

>  <QED>  (30) 
0.724

$$$$
Z3499636517
     RDKit          3D

 21 23  0  0  0  0  0  0  0  0999 V2000
  -10.6476   12.2580   63.5592 C   0  0  0  0  0  0  0  0  0  0  0  0
  -12.8229   16.0685   73.6199 C   0  0  0  0  0  0  0  0  0  0  0  0
  -12.2399   16.5802   72.4629 C   0  0  0  0  0  0  0  0  0  0  0  0
  -13.2043   14.7270   73.6782 C   0  0  0  0  0  0  0  0  0  0  0  0
  -12.0357   15.7527   71.3590 C   0  0  0  0  0  0  0  0  0  0  0  0
  -13.3777   12.5301   72.6033 C   0  0  0  0  0  0  0  0  0  0  0  0
  -13.1489   11.7585   71.4743 C   0  0  0  0  0  0  0  0  0  0  0  0
  -13.0062   13.8793   72.5760 C   0  0  0  0  0  0  0  0  0  0  0  0
  -12.4157   14.4011   71.4065 C   0  0  0  0  0  0  0  0  0  0  0  0
  -12.2346   13.5286   70.3316 C   0  0  0  0  0  0  0  0  0  0  0  0
  -11.6308   13.9553   69.0626 C   0  0  0  0  0  0  0  0  0  0  0  0
  -11.8642   14.2776   64.4665 C   0  0  0  0  0  0  0  0  0  0  0  0
  -11.8465   12.5669   65.7614 C   0  0  0  0  0  0  0  0  0  0  0  0
  -12.3998   14.0042   65.8904 C   0  0  0  0  0  0  0  0  0  0  0  0
  -11.8499   12.7417   64.2147 C   0  0  0  0  0  0  0  0  0  0  0  0
  -13.1038   12.2068   63.5251 C   0  0  0  0  0  0  0  0  0  0  0  0
   -9.6872   11.8716   63.0355 N   0  0  0  0  0  0  0  0  0  0  0  0
  -12.5864   12.2230   70.3383 N   0  0  0  0  0  0  0  0  0  0  0  0
  -10.3119   13.8480   68.9439 N   0  0  0  0  0  0  0  0  0  0  0  0
  -12.4506   14.4163   68.1252 N   0  0  0  0  0  0  0  0  0  0  0  0
  -11.8502   14.8101   66.9477 O   0  0  0  0  0  0  0  0  0  0  0  0
  1 15  1  0
  1 17  3  0
  2  3  2  0
  2  4  1  0
  3  5  1  0
  4  8  2  0
  5  9  2  0
  6  7  2  0
  6  8  1  0
  7 18  1  0
  8  9  1  0
  9 10  1  0
 10 11  1  0
 10 18  2  0
 11 19  1  0
 11 20  2  0
 12 14  1  0
 12 15  1  0
 13 14  1  0
 13 15  1  0
 14 21  1  0
 15 16  1  0
 20 21  1  0
M  CHG  1  20   1
M  END
>  <idnumber>  (31) 
Z3499636517

>  <Chemgauss4>  (31) 
-12.2335290908813

>  <Hetero-Bemis-Murcko>  (31) 
c1ccc2c(c1)ccnc2C=[NH+]OC3CCC3

>  <MW>  (31) 
280.331

>  <HBD>  (31) 
1

>  <HBA>  (31) 
4

>  <RotBonds>  (31) 
3

>  <XLogP>  (31) 
2.35699987411499

>  <sLogP>  (31) 
2.564

>  <TPSA>  (31) 
85.9000015258789

>  <FSP3>  (31) 
0.312

>  <QED>  (31) 
0.532

$$$$
Z3311627819
     RDKit          3D

 18 20  0  0  1  0  0  0  0  0999 V2000
  -11.6770   15.2837   71.4358 C   0  0  0  0  0  0  0  0  0  0  0  0
  -12.9917   15.6003   71.1848 C   0  0  0  0  0  0  0  0  0  0  0  0
  -11.8211   15.5088   69.3314 C   0  0  0  0  0  0  0  0  0  0  0  0
  -11.1478   15.0171   72.7932 C   0  0  0  0  0  0  0  0  0  0  0  0
  -14.0676   15.7709   72.1858 C   0  0  0  0  0  0  0  0  0  0  0  0
  -12.1375   15.5226   73.8660 C   0  0  0  0  0  0  0  0  0  0  0  0
  -13.6048   15.1718   73.5317 C   0  0  0  0  0  0  0  0  0  0  0  0
  -11.5037   12.1767   66.3670 C   0  0  0  0  0  0  0  0  0  0  0  0
  -11.5846   13.0624   67.6039 C   0  0  0  0  0  0  0  0  0  0  0  0
  -12.2393   12.9438   65.2704 C   0  0  1  0  0  0  0  0  0  0  0  0
  -11.9300   14.4109   65.5882 C   0  0  2  0  0  0  0  0  0  0  0  0
  -10.5478   14.8963   65.1587 C   0  0  0  0  0  0  0  0  0  0  0  0
  -11.5473   15.5831   67.8581 C   0  0  0  0  0  0  0  0  0  0  0  0
  -11.8701   12.4790   63.8707 C   0  0  0  0  0  0  0  0  0  0  0  0
  -10.9506   15.2222   70.2787 N   0  0  0  0  0  0  0  0  0  0  0  0
  -13.0761   15.7469   69.8328 N   0  0  0  0  0  0  0  0  0  0  0  0
  -12.0758   14.4060   67.1043 N   0  0  2  0  0  0  0  0  0  0  0  0
  -12.6082   13.2387   62.9285 O   0  0  0  0  0  0  0  0  0  0  0  0
  1  2  2  0
  1  4  1  0
  1 15  1  0
  2  5  1  0
  2 16  1  0
  3 13  1  0
  3 15  2  0
  3 16  1  0
  4  6  1  0
  5  7  1  0
  6  7  1  0
  8  9  1  0
  8 10  1  0
  9 17  1  0
 10 11  1  0
 10 14  1  6
 11 12  1  1
 11 17  1  0
 17 13  1  1
 14 18  1  0
M  CHG  1  17   1
M  END
>  <idnumber>  (32) 
Z3311627819

>  <Chemgauss4>  (32) 
-12.2725391387939

>  <Hetero-Bemis-Murcko>  (32) 
C1CCc2c([nH]c(n2)C[NH+]3CCCC3)C1

>  <MW>  (32) 
249.358

>  <HBD>  (32) 
2

>  <HBA>  (32) 
3

>  <RotBonds>  (32) 
3

>  <XLogP>  (32) 
0.867999970912933

>  <sLogP>  (32) 
1.491

>  <TPSA>  (32) 
53.3500022888184

>  <FSP3>  (32) 
0.786

>  <QED>  (32) 
0.853

$$$$
Z3363670012
     RDKit          3D

 22 25  0  0  1  0  0  0  0  0999 V2000
  -12.2547   16.2849   71.2549 C   0  0  0  0  0  0  0  0  0  0  0  0
  -14.1898   14.7597   71.8348 C   0  0  0  0  0  0  0  0  0  0  0  0
  -11.4278   15.0742   70.8216 C   0  0  0  0  0  0  0  0  0  0  0  0
  -13.3657   13.5468   71.4021 C   0  0  0  0  0  0  0  0  0  0  0  0
  -11.5384   10.1708   70.0401 C   0  0  0  0  0  0  0  0  0  0  0  0
  -12.0151   10.6145   71.3941 C   0  0  0  0  0  0  0  0  0  0  0  0
  -12.7279   13.0019   65.3545 C   0  0  0  0  0  0  0  0  0  0  0  0
  -10.8142   14.4074   66.1991 C   0  0  0  0  0  0  0  0  0  0  0  0
  -10.4600   11.9219   65.7453 C   0  0  0  0  0  0  0  0  0  0  0  0
  -12.5197   13.5673   63.9556 C   0  0  0  0  0  0  0  0  0  0  0  0
  -10.6047   14.9417   64.7887 C   0  0  0  0  0  0  0  0  0  0  0  0
  -11.0044   10.6525   66.3702 C   0  0  0  0  0  0  0  0  0  0  0  0
  -13.3242   15.9399   72.3027 C   0  0  1  0  0  0  0  0  0  0  0  0
  -12.3286   13.9351   70.3519 C   0  0  2  0  0  0  0  0  0  0  0  0
  -12.2772   11.4702   70.1878 C   0  0  0  0  0  0  0  0  0  0  0  0
  -11.7706   12.4712   67.6330 C   0  0  2  0  0  0  0  0  0  0  0  0
  -11.4364   12.9988   66.2203 C   0  0  0  0  0  0  0  0  0  0  0  0
  -12.7030   15.6741   73.6769 C   0  0  0  0  0  0  0  0  0  0  0  0
  -10.7952   12.8551   68.7434 C   0  0  0  0  0  0  0  0  0  0  0  0
  -11.9023   14.9196   64.0563 N   0  0  0  0  0  0  0  0  0  0  0  0
  -11.4846   12.7487   70.0481 N   0  0  1  0  0  0  0  0  0  0  0  0
  -11.7535   11.0325   67.5316 O   0  0  0  0  0  0  0  0  0  0  0  0
  1  3  1  0
  1 13  1  0
  2  4  1  0
  2 13  1  0
 14  3  1  1
  4 14  1  0
  5  6  1  0
  5 15  1  0
  6 15  1  0
  7 10  1  0
  7 17  1  0
  8 11  1  0
  8 17  1  0
  9 12  1  0
  9 17  1  0
 10 20  1  0
 11 20  1  0
 12 22  1  0
 13 18  1  1
 14 21  1  0
 15 21  1  0
 16 17  1  0
 16 19  1  1
 16 22  1  0
 21 19  1  6
M  CHG  2  20   1  21   1
M  END
>  <idnumber>  (33) 
Z3363670012

>  <Chemgauss4>  (33) 
-12.2279949188232

>  <Hetero-Bemis-Murcko>  (33) 
C1CCC(CC1)[NH+](CC2C3(CC[NH2+]CC3)CCO2)C4CC4

>  <MW>  (33) 
306.494

>  <HBD>  (33) 
1

>  <HBA>  (33) 
3

>  <RotBonds>  (33) 
4

>  <XLogP>  (33) 
3.64199948310852

>  <sLogP>  (33) 
3.188

>  <TPSA>  (33) 
30.2800006866455

>  <FSP3>  (33) 
1.0

>  <QED>  (33) 
0.863

$$$$
Z3350537364
     RDKit          3D

 20 22  0  0  1  0  0  0  0  0999 V2000
  -12.8333   15.9714   71.0475 C   0  0  0  0  0  0  0  0  0  0  0  0
  -13.7509   14.2294   72.4477 C   0  0  0  0  0  0  0  0  0  0  0  0
  -12.1743   15.0093   70.2822 C   0  0  0  0  0  0  0  0  0  0  0  0
  -12.3037   13.6572   70.5996 C   0  0  0  0  0  0  0  0  0  0  0  0
  -13.6215   15.5815   72.1303 C   0  0  0  0  0  0  0  0  0  0  0  0
  -13.0920   13.2672   71.6823 C   0  0  0  0  0  0  0  0  0  0  0  0
  -11.7259   13.3351   63.8689 C   0  0  0  0  0  0  0  0  0  0  0  0
  -12.4477   11.7725   65.1795 C   0  0  0  0  0  0  0  0  0  0  0  0
  -13.1142   14.1737   65.9088 C   0  0  0  0  0  0  0  0  0  0  0  0
  -11.0750   13.6309   66.3852 C   0  0  0  0  0  0  0  0  0  0  0  0
  -12.5966   12.0657   63.6617 C   0  0  2  0  0  0  0  0  0  0  0  0
  -12.2845   14.1321   67.2208 C   0  0  1  0  0  0  0  0  0  0  0  0
  -12.0773   13.2330   65.3315 C   0  0  0  0  0  0  0  0  0  0  0  0
  -10.7349   16.8453   69.3053 C   0  0  0  0  0  0  0  0  0  0  0  0
  -11.3247   15.4504   69.1128 C   0  0  2  0  0  0  0  0  0  0  0  0
  -11.9599   11.0564   62.8084 N   0  0  0  0  0  0  0  0  0  0  0  0
  -12.0714   15.4553   67.8173 N   0  0  0  0  0  0  0  0  0  0  0  0
  -11.6673   12.7054   69.8610 O   0  0  0  0  0  0  0  0  0  0  0  0
  -14.2544   16.5055   72.8651 F   0  0  0  0  0  0  0  0  0  0  0  0
  -13.2205   11.9698   71.9926 F   0  0  0  0  0  0  0  0  0  0  0  0
  1  3  2  0
  1  5  1  0
  2  5  2  0
  2  6  1  0
  3  4  1  0
  3 15  1  0
  4  6  2  0
  4 18  1  0
  5 19  1  0
  6 20  1  0
  7 11  1  0
  7 13  1  0
  8 11  1  0
  8 13  1  0
  9 12  1  0
  9 13  1  0
 10 12  1  0
 10 13  1  0
 11 16  1  6
 12 17  1  6
 15 14  1  1
 15 17  1  0
M  CHG  2  16   1  17   1
M  END
>  <idnumber>  (34) 
Z3350537364

>  <Chemgauss4>  (34) 
-12.2019853591919

>  <Hetero-Bemis-Murcko>  (34) 
c1ccc(cc1)C[NH2+]C2CC3(C2)CCC3

>  <MW>  (34) 
282.334

>  <HBD>  (34) 
3

>  <HBA>  (34) 
3

>  <RotBonds>  (34) 
3

>  <XLogP>  (34) 
2.74600005149841

>  <sLogP>  (34) 
2.591

>  <TPSA>  (34) 
64.4799957275391

>  <FSP3>  (34) 
0.6

>  <QED>  (34) 
0.798

$$$$
s_276492____16888040____14697256
     RDKit          3D

 18 19  0  0  1  0  0  0  0  0999 V2000
  -10.0848   11.8289   65.4308 C   0  0  0  0  0  0  0  0  0  0  0  0
  -10.4222   12.7263   66.4438 C   0  0  0  0  0  0  0  0  0  0  0  0
  -10.9795   11.5847   64.3888 C   0  0  0  0  0  0  0  0  0  0  0  0
  -12.5491   13.1352   65.3732 C   0  0  0  0  0  0  0  0  0  0  0  0
  -11.6544   13.3794   66.4151 C   0  0  0  0  0  0  0  0  0  0  0  0
  -12.2116   12.2378   64.3601 C   0  0  0  0  0  0  0  0  0  0  0  0
  -12.0547   14.2680   69.9389 C   0  0  0  0  0  0  0  0  0  0  0  0
  -13.6695   15.0199   71.4293 C   0  0  0  0  0  0  0  0  0  0  0  0
  -12.4893   14.3965   72.2296 C   0  0  2  0  0  0  0  0  0  0  0  0
  -12.9508   13.1914   73.0479 C   0  0  0  0  0  0  0  0  0  0  0  0
  -11.2440   16.5754   72.3047 C   0  0  0  0  0  0  0  0  0  0  0  0
  -12.8231   15.9672   74.1595 C   0  0  0  0  0  0  0  0  0  0  0  0
  -12.0177   14.3450   67.5059 C   0  0  0  0  0  0  0  0  0  0  0  0
  -11.8254   15.4334   73.1347 C   0  0  0  0  0  0  0  0  0  0  0  0
  -11.5307   13.9558   71.1933 N   0  0  0  0  0  0  0  0  0  0  0  0
  -13.3003   14.8899   70.0162 N   0  0  0  0  0  0  0  0  0  0  0  0
  -11.4137   13.9928   68.7569 N   0  0  0  0  0  0  0  0  0  0  0  0
  -13.0844   11.9999   63.3429 O   0  0  0  0  0  0  0  0  0  0  0  0
  1  2  2  0
  1  3  1  0
  2  5  1  0
  3  6  2  0
  4  5  2  0
  4  6  1  0
  5 13  1  0
  6 18  1  0
  7 15  1  0
  7 16  2  0
  7 17  1  0
  8  9  1  0
  8 16  1  0
  9 10  1  1
  9 14  1  0
  9 15  1  0
 11 14  1  0
 12 14  1  0
 13 17  1  0
M  CHG  1  16   1
M  END
>  <idnumber>  (35) 
s_276492____16888040____14697256

>  <Chemgauss4>  (35) 
-12.2159872055054

>  <Hetero-Bemis-Murcko>  (35) 
c1ccc(cc1)CNC2=[NH+]CCN2

>  <MW>  (35) 
247.342

>  <HBD>  (35) 
3

>  <HBA>  (35) 
4

>  <RotBonds>  (35) 
3

>  <XLogP>  (35) 
1.34800004959106

>  <sLogP>  (35) 
1.856

>  <TPSA>  (35) 
58.2599983215332

>  <FSP3>  (35) 
0.5

>  <QED>  (35) 
0.764

$$$$
Z4064879262
     RDKit          3D

 21 24  0  0  1  0  0  0  0  0999 V2000
  -13.5239   15.8131   72.9259 C   0  0  0  0  0  0  0  0  0  0  0  0
  -14.1141   15.4862   71.7663 C   0  0  0  0  0  0  0  0  0  0  0  0
  -11.8289   14.8311   67.4951 C   0  0  0  0  0  0  0  0  0  0  0  0
  -13.0751   13.5854   72.5444 C   0  0  0  0  0  0  0  0  0  0  0  0
  -11.2793   15.1046   72.1374 C   0  0  0  0  0  0  0  0  0  0  0  0
  -12.6281   13.0350   65.7346 C   0  0  0  0  0  0  0  0  0  0  0  0
  -12.1950   14.9754   64.8801 C   0  0  0  0  0  0  0  0  0  0  0  0
  -10.2709   13.2412   64.6750 C   0  0  0  0  0  0  0  0  0  0  0  0
  -11.8805   12.9711   63.2429 C   0  0  0  0  0  0  0  0  0  0  0  0
  -12.4096   14.8191   73.1583 C   0  0  1  0  0  0  0  0  0  0  0  0
  -13.3728   14.2917   71.2109 C   0  0  2  0  0  0  0  0  0  0  0  0
  -12.6978   14.4949   66.2741 C   0  0  2  0  0  0  0  0  0  0  0  0
  -10.5044   12.2816   63.4722 C   0  0  2  0  0  0  0  0  0  0  0  0
  -11.7488   13.5597   64.6233 C   0  0  0  0  0  0  0  0  0  0  0  0
  -11.9459   14.7333   70.7737 C   0  0  1  0  0  0  0  0  0  0  0  0
  -10.5566   10.7997   63.8088 C   0  0  0  0  0  0  0  0  0  0  0  0
  -11.8958   15.8340   69.7693 C   0  0  0  0  0  0  0  0  0  0  0  0
  -12.5197   15.4358   68.5278 N   0  0  0  0  0  0  0  0  0  0  0  0
  -10.8245   10.0295   62.5726 N   0  0  0  0  0  0  0  0  0  0  0  0
  -10.6350   14.5553   67.4813 O   0  0  0  0  0  0  0  0  0  0  0  0
  -11.2602   13.6064   70.2239 O   0  0  0  0  0  0  0  0  0  0  0  0
  1  2  2  0
 10  1  1  6
 11  2  1  1
 12  3  1  1
  3 18  1  0
  3 20  2  0
  4 10  1  0
  4 11  1  0
  5 10  1  0
  5 15  1  0
  6 12  1  0
  6 14  1  0
  7 12  1  0
  7 14  1  0
  8 13  1  0
  8 14  1  0
  9 13  1  0
  9 14  1  0
 11 15  1  0
 13 16  1  1
 15 17  1  0
 15 21  1  6
 16 19  1  0
 17 18  1  0
M  CHG  1  19   1
M  END
>  <idnumber>  (36) 
Z4064879262

>  <Chemgauss4>  (36) 
-12.2497024536133

>  <Hetero-Bemis-Murcko>  (36) 
C1CC2(C1)CC(C2)CNCC3CC4CC3C=C4

>  <MW>  (36) 
290.407

>  <HBD>  (36) 
3

>  <HBA>  (36) 
3

>  <RotBonds>  (36) 
4

>  <XLogP>  (36) 
0.435999929904938

>  <sLogP>  (36) 
1.195

>  <TPSA>  (36) 
76.9700012207031

>  <FSP3>  (36) 
0.824

>  <QED>  (36) 
0.681

$$$$
Z3105005873
     RDKit          3D

 28 31  0  0  1  0  0  0  0  0999 V2000
  -13.1393   14.5788   71.7763 C   0  0  0  0  0  0  0  0  0  0  0  0
  -11.8953   16.5821   72.2492 C   0  0  0  0  0  0  0  0  0  0  0  0
  -13.1660   14.3379   73.1404 C   0  0  0  0  0  0  0  0  0  0  0  0
  -11.9779   16.2516   73.5923 C   0  0  0  0  0  0  0  0  0  0  0  0
  -12.4898   15.7245   71.3303 C   0  0  0  0  0  0  0  0  0  0  0  0
  -11.0294   13.7294   68.7748 C   0  0  0  0  0  0  0  0  0  0  0  0
  -11.7998   13.1778   67.7786 C   0  0  0  0  0  0  0  0  0  0  0  0
  -11.7374   11.7162   69.3246 C   0  0  0  0  0  0  0  0  0  0  0  0
  -10.3761   14.9954   68.8403 C   0  0  0  0  0  0  0  0  0  0  0  0
   -9.6543   19.8409   66.7802 C   0  0  0  0  0  0  0  0  0  0  0  0
   -9.3613   19.3220   68.1655 C   0  0  0  0  0  0  0  0  0  0  0  0
  -13.3822   10.2354   70.5671 C   0  0  0  0  0  0  0  0  0  0  0  0
  -11.3055    9.2229   69.5225 C   0  0  0  0  0  0  0  0  0  0  0  0
  -13.5344    8.9915   71.4307 C   0  0  0  0  0  0  0  0  0  0  0  0
  -11.4843    7.9920   70.3997 C   0  0  0  0  0  0  0  0  0  0  0  0
  -11.0524   19.3131   66.5374 C   0  0  0  0  0  0  0  0  0  0  0  0
  -11.9116   10.4785   70.1777 C   0  0  0  0  0  0  0  0  0  0  0  0
  -10.0157   17.9520   68.1201 C   0  0  1  0  0  0  0  0  0  0  0  0
  -12.1716   13.7574   66.4774 C   0  0  0  0  0  0  0  0  0  0  0  0
  -12.4300   16.0340   69.8624 C   0  0  0  0  0  0  0  0  0  0  0  0
  -10.4315   17.4343   69.4833 C   0  0  0  0  0  0  0  0  0  0  0  0
  -12.6001   15.1476   74.0633 N   0  0  0  0  0  0  0  0  0  0  0  0
  -12.2378   11.9247   68.1271 N   0  0  0  0  0  0  0  0  0  0  0  0
  -10.9988   12.7817   69.7588 N   0  0  0  0  0  0  0  0  0  0  0  0
  -11.0591   16.1189   69.3788 N   0  0  0  0  0  0  0  0  0  0  0  0
  -12.9322    7.8236   70.7223 N   0  0  0  0  0  0  0  0  0  0  0  0
   -9.1980   15.0734   68.4260 O   0  0  0  0  0  0  0  0  0  0  0  0
  -11.1717   18.0881   67.2762 O   0  0  0  0  0  0  0  0  0  0  0  0
  1  3  2  0
  1  5  1  0
  2  4  1  0
  2  5  2  0
  3 22  1  0
  4 22  2  0
  5 20  1  0
  6  7  2  0
  6  9  1  0
  6 24  1  0
  7 19  1  0
  7 23  1  0
  8 17  1  0
  8 23  2  0
  8 24  1  0
  9 25  1  0
  9 27  2  0
 10 11  1  0
 10 16  1  0
 11 18  1  0
 12 14  1  0
 12 17  1  0
 13 15  1  0
 13 17  1  0
 14 26  1  0
 15 26  1  0
 16 28  1  0
 18 21  1  1
 18 28  1  0
 20 25  1  0
 21 25  1  0
M  CHG  1  26   1
M  END
>  <idnumber>  (37) 
Z3105005873

>  <Chemgauss4>  (37) 
-12.4949188232422

>  <Hetero-Bemis-Murcko>  (37) 
c1cnccc1CN(Cc2cnc([nH]2)C3CC[NH2+]CC3)CC4CCCO4

>  <MW>  (37) 
383.496

>  <HBD>  (37) 
2

>  <HBA>  (37) 
5

>  <RotBonds>  (37) 
6

>  <XLogP>  (37) 
0.872000098228455

>  <sLogP>  (37) 
2.402

>  <TPSA>  (37) 
87.7200012207031

>  <FSP3>  (37) 
0.571

>  <QED>  (37) 
0.8

$$$$
Z2360526299
     RDKit          3D

 21 22  0  0  1  0  0  0  0  0999 V2000
  -13.2447   15.2028   73.1533 C   0  0  0  0  0  0  0  0  0  0  0  0
  -12.0947   15.3559   72.3426 C   0  0  0  0  0  0  0  0  0  0  0  0
  -14.2561   14.8050   72.3103 C   0  0  0  0  0  0  0  0  0  0  0  0
  -12.4853   15.0404   71.0620 C   0  0  0  0  0  0  0  0  0  0  0  0
  -11.5852   11.2982   69.9594 C   0  0  0  0  0  0  0  0  0  0  0  0
   -9.9497    7.8890   72.8985 C   0  0  0  0  0  0  0  0  0  0  0  0
  -11.4492    7.6494   72.9427 C   0  0  0  0  0  0  0  0  0  0  0  0
   -9.7112    8.4500   71.5008 C   0  0  0  0  0  0  0  0  0  0  0  0
  -12.0050    8.8913   72.2504 C   0  0  1  0  0  0  0  0  0  0  0  0
  -11.0181    9.1502   71.0984 C   0  0  1  0  0  0  0  0  0  0  0  0
  -12.6990   17.2842   69.4256 C   0  0  0  0  0  0  0  0  0  0  0  0
  -11.3366   16.2425   67.6203 C   0  0  0  0  0  0  0  0  0  0  0  0
  -13.4406    8.7106   71.7807 C   0  0  0  0  0  0  0  0  0  0  0  0
  -11.8144   13.6180   69.0819 C   0  0  0  0  0  0  0  0  0  0  0  0
  -11.7550   15.0009   69.7378 C   0  0  1  0  0  0  0  0  0  0  0  0
  -10.8275   10.5597   70.8689 N   0  0  0  0  0  0  0  0  0  0  0  0
  -11.1928   12.6342   69.9367 N   0  0  0  0  0  0  0  0  0  0  0  0
  -14.2886    8.3753   72.9453 N   0  0  0  0  0  0  0  0  0  0  0  0
  -12.2891   16.0006   68.7584 N   0  0  0  0  0  0  0  0  0  0  0  0
  -12.4863   10.8286   69.2657 O   0  0  0  0  0  0  0  0  0  0  0  0
  -13.8014   14.7035   71.0338 O   0  0  0  0  0  0  0  0  0  0  0  0
  1  2  1  0
  1  3  2  0
  2  4  2  0
  3 21  1  0
  4 15  1  0
  4 21  1  0
  5 16  1  0
  5 17  1  0
  5 20  2  0
  6  7  1  0
  6  8  1  0
  7  9  1  0
  8 10  1  0
  9 10  1  0
  9 13  1  6
 10 16  1  1
 11 19  1  0
 12 19  1  0
 13 18  1  0
 15 14  1  6
 14 17  1  0
 15 19  1  0
M  CHG  2  18   1  19   1
M  END
>  <idnumber>  (38) 
Z2360526299

>  <Chemgauss4>  (38) 
-12.4666595458984

>  <Hetero-Bemis-Murcko>  (38) 
c1cc(oc1)CCNCNC2CCCC2

>  <MW>  (38) 
294.399

>  <HBD>  (38) 
3

>  <HBA>  (38) 
4

>  <RotBonds>  (38) 
6

>  <XLogP>  (38) 
0.992999911308289

>  <sLogP>  (38) 
1.309

>  <TPSA>  (38) 
86.3499984741211

>  <FSP3>  (38) 
0.667

>  <QED>  (38) 
0.738

$$$$
Z2440966676
     RDKit          3D

 26 27  0  0  1  0  0  0  0  0999 V2000
  -12.6563   16.3945   73.3600 C   0  0  0  0  0  0  0  0  0  0  0  0
  -13.5694   15.3750   73.0913 C   0  0  0  0  0  0  0  0  0  0  0  0
  -11.6489   16.6887   72.4411 C   0  0  0  0  0  0  0  0  0  0  0  0
  -13.4752   14.6495   71.9037 C   0  0  0  0  0  0  0  0  0  0  0  0
  -11.5546   15.9632   71.2535 C   0  0  0  0  0  0  0  0  0  0  0  0
  -13.1812   13.8265   65.3195 C   0  0  0  0  0  0  0  0  0  0  0  0
  -11.9105   13.3323   65.2293 C   0  0  0  0  0  0  0  0  0  0  0  0
  -12.4678   14.9436   70.9848 C   0  0  0  0  0  0  0  0  0  0  0  0
  -12.0961   14.3911   67.1645 C   0  0  0  0  0  0  0  0  0  0  0  0
  -11.8016   11.7991   69.1636 C   0  0  0  0  0  0  0  0  0  0  0  0
  -10.8830   10.6912   69.5696 C   0  0  0  0  0  0  0  0  0  0  0  0
  -10.6533    6.4788   68.6701 C   0  0  0  0  0  0  0  0  0  0  0  0
  -11.2151    6.2846   67.3008 C   0  0  0  0  0  0  0  0  0  0  0  0
  -12.5834   10.0250   71.3148 C   0  0  0  0  0  0  0  0  0  0  0  0
  -11.7734   14.9728   68.5220 C   0  0  0  0  0  0  0  0  0  0  0  0
  -11.1567    7.4328   70.9104 C   0  0  0  0  0  0  0  0  0  0  0  0
  -10.4664    8.7786   71.0556 C   0  0  0  0  0  0  0  0  0  0  0  0
  -12.3644   14.1537   69.6912 C   0  0  1  0  0  0  0  0  0  0  0  0
  -13.2682   14.4764   66.5270 N   0  0  0  0  0  0  0  0  0  0  0  0
  -11.2615   13.6967   66.3843 N   0  0  0  0  0  0  0  0  0  0  0  0
  -11.5846   12.9532   69.8812 N   0  0  0  0  0  0  0  0  0  0  0  0
  -11.4991    7.1432   69.5438 N   0  0  0  0  0  0  0  0  0  0  0  0
  -11.3127    9.8761   70.6117 N   0  0  0  0  0  0  0  0  0  0  0  0
  -12.6262   11.5702   68.2935 O   0  0  0  0  0  0  0  0  0  0  0  0
   -9.8326   10.6168   68.9431 O   0  0  0  0  0  0  0  0  0  0  0  0
   -9.5318    6.0578   68.9283 O   0  0  0  0  0  0  0  0  0  0  0  0
  1  2  2  0
  1  3  1  0
  2  4  1  0
  3  5  2  0
  4  8  2  0
  5  8  1  0
  6  7  2  0
  6 19  1  0
  7 20  1  0
  8 18  1  0
  9 15  1  0
  9 19  1  0
  9 20  2  0
 10 11  1  0
 10 21  1  0
 10 24  2  0
 11 23  1  0
 11 25  2  0
 12 13  1  0
 12 22  1  0
 12 26  2  0
 14 23  1  0
 18 15  1  6
 16 17  1  0
 16 22  1  0
 17 23  1  0
 18 21  1  0
M  CHG  1  20   1
M  END
>  <idnumber>  (39) 
Z2440966676

>  <Chemgauss4>  (39) 
-12.8561019897461

>  <Hetero-Bemis-Murcko>  (39) 
c1ccc(cc1)CCc2[nH]cc[nH+]2

>  <MW>  (39) 
357.414

>  <HBD>  (39) 
3

>  <HBA>  (39) 
4

>  <RotBonds>  (39) 
7

>  <XLogP>  (39) 
0.193999916315079

>  <sLogP>  (39) 
0.404

>  <TPSA>  (39) 
108.439994812012

>  <FSP3>  (39) 
0.333

>  <QED>  (39) 
0.624

$$$$
Z3191548851
     RDKit          3D

 23 25  0  0  1  0  0  0  0  0999 V2000
   -9.3844   12.0467   66.5535 C   0  0  0  0  0  0  0  0  0  0  0  0
  -11.1207   10.6850   63.5386 C   0  0  0  0  0  0  0  0  0  0  0  0
  -10.1881   10.8512   64.5606 C   0  0  0  0  0  0  0  0  0  0  0  0
  -12.2269   11.5322   63.4274 C   0  0  0  0  0  0  0  0  0  0  0  0
  -13.0591   14.3091   65.5983 C   0  0  0  0  0  0  0  0  0  0  0  0
  -10.3351   11.8736   65.5051 C   0  0  0  0  0  0  0  0  0  0  0  0
  -11.4423   12.7402   65.4132 C   0  0  0  0  0  0  0  0  0  0  0  0
  -11.8959   13.8534   66.1748 C   0  0  0  0  0  0  0  0  0  0  0  0
  -12.3608   12.5499   64.3786 C   0  0  0  0  0  0  0  0  0  0  0  0
  -11.2859   14.4715   67.3802 C   0  0  0  0  0  0  0  0  0  0  0  0
  -14.5381   14.5147   71.8744 C   0  0  0  0  0  0  0  0  0  0  0  0
  -14.0125   15.1608   73.1530 C   0  0  0  0  0  0  0  0  0  0  0  0
  -13.8779   15.1083   70.6296 C   0  0  0  0  0  0  0  0  0  0  0  0
  -11.8236   15.6745   71.9963 C   0  0  0  0  0  0  0  0  0  0  0  0
  -12.4845   15.0701   73.2470 C   0  0  1  0  0  0  0  0  0  0  0  0
  -12.3451   15.0405   70.6955 C   0  0  2  0  0  0  0  0  0  0  0  0
  -11.9814   15.7669   74.5106 C   0  0  0  0  0  0  0  0  0  0  0  0
  -11.7281   15.7257   69.4748 C   0  0  0  0  0  0  0  0  0  0  0  0
   -8.6107   12.1877   67.4069 N   0  0  0  0  0  0  0  0  0  0  0  0
  -13.3315   13.5164   64.5158 N   0  0  0  0  0  0  0  0  0  0  0  0
  -12.1630   15.0725   68.2874 N   0  0  0  0  0  0  0  0  0  0  0  0
  -10.0653   14.4467   67.5147 O   0  0  0  0  0  0  0  0  0  0  0  0
  -11.9619   13.6624   70.6610 O   0  0  0  0  0  0  0  0  0  0  0  0
  1  6  1  0
  1 19  3  0
  2  3  2  0
  2  4  1  0
  3  6  1  0
  4  9  2  0
  5  8  2  0
  5 20  1  0
  6  7  2  0
  7  8  1  0
  7  9  1  0
  8 10  1  0
  9 20  1  0
 10 21  1  0
 10 22  2  0
 11 12  1  0
 11 13  1  0
 12 15  1  0
 13 16  1  0
 14 15  1  0
 14 16  1  0
 15 17  1  1
 16 18  1  0
 16 23  1  1
 18 21  1  0
M  END
>  <idnumber>  (40) 
Z3191548851

>  <Chemgauss4>  (40) 
-12.176721572876

>  <Hetero-Bemis-Murcko>  (40) 
c1ccc2c(c1)c(c[nH]2)CNCC3CCCCC3

>  <MW>  (40) 
311.385

>  <HBD>  (40) 
3

>  <HBA>  (40) 
3

>  <RotBonds>  (40) 
3

>  <XLogP>  (40) 
2.70899987220764

>  <sLogP>  (40) 
2.711

>  <TPSA>  (40) 
88.9099960327148

>  <FSP3>  (40) 
0.444

>  <QED>  (40) 
0.814

$$$$
Z3442128901
     RDKit          3D

 25 27  0  0  1  0  0  0  0  0999 V2000
   -9.5209    8.4466   71.4270 C   0  0  0  0  0  0  0  0  0  0  0  0
   -9.5466   10.2404   69.9892 C   0  0  0  0  0  0  0  0  0  0  0  0
  -10.8787    8.5773   71.6883 C   0  0  0  0  0  0  0  0  0  0  0  0
  -10.9039   10.4501   70.1792 C   0  0  0  0  0  0  0  0  0  0  0  0
  -11.5852    9.6061   71.0563 C   0  0  0  0  0  0  0  0  0  0  0  0
  -11.5709    7.6328   72.5953 C   0  0  0  0  0  0  0  0  0  0  0  0
  -11.5691   11.5487   69.4324 C   0  0  0  0  0  0  0  0  0  0  0  0
  -13.0654    9.7532   71.2708 C   0  0  0  0  0  0  0  0  0  0  0  0
  -13.4713   14.5209   72.9552 C   0  0  0  0  0  0  0  0  0  0  0  0
  -12.9613   15.9414   73.0918 C   0  0  0  0  0  0  0  0  0  0  0  0
  -13.4481    9.2707   72.6613 C   0  0  0  0  0  0  0  0  0  0  0  0
  -13.1256   14.1828   71.5210 C   0  0  0  0  0  0  0  0  0  0  0  0
  -11.6330   15.9286   72.3558 C   0  0  0  0  0  0  0  0  0  0  0  0
  -10.6361   17.4890   68.0028 C   0  0  0  0  0  0  0  0  0  0  0  0
   -8.2346   16.9579   68.4640 C   0  0  0  0  0  0  0  0  0  0  0  0
  -10.0872   15.8700   69.8457 C   0  0  0  0  0  0  0  0  0  0  0  0
  -11.6362   13.9970   69.0362 C   0  0  0  0  0  0  0  0  0  0  0  0
   -9.6589   16.4020   68.4614 C   0  0  0  0  0  0  0  0  0  0  0  0
  -11.4891   15.2400   69.9237 C   0  0  1  0  0  0  0  0  0  0  0  0
   -8.8367    9.2611   70.5928 N   0  0  0  0  0  0  0  0  0  0  0  0
  -12.8580    7.9815   72.9634 N   0  0  0  0  0  0  0  0  0  0  0  0
  -11.0727   12.8116   69.6740 N   0  0  0  0  0  0  0  0  0  0  0  0
  -11.7652   14.8170   71.3307 N   0  0  0  0  0  0  0  0  0  0  0  0
  -11.0135    6.6055   72.9688 O   0  0  0  0  0  0  0  0  0  0  0  0
  -12.5054   11.2836   68.6830 O   0  0  0  0  0  0  0  0  0  0  0  0
  1  3  2  0
  1 20  1  0
  2  4  1  0
  2 20  2  0
  3  5  1  0
  3  6  1  0
  4  5  2  0
  4  7  1  0
  5  8  1  0
  6 21  1  0
  6 24  2  0
  7 22  1  0
  7 25  2  0
  8 11  1  0
  9 10  1  0
  9 12  1  0
 10 13  1  0
 11 21  1  0
 12 23  1  0
 13 23  1  0
 14 18  1  0
 15 18  1  0
 16 18  1  0
 19 16  1  1
 17 19  1  0
 17 22  1  0
 19 23  1  0
M  CHG  1  23   1
M  END
>  <idnumber>  (41) 
Z3442128901

>  <Chemgauss4>  (41) 
-12.3156862258911

>  <Hetero-Bemis-Murcko>  (41) 
c1c2c(c(cn1)CNCC[NH+]3CCCC3)CCNC2

>  <MW>  (41) 
344.459

>  <HBD>  (41) 
2

>  <HBA>  (41) 
4

>  <RotBonds>  (41) 
6

>  <XLogP>  (41) 
1.57399964332581

>  <sLogP>  (41) 
1.608

>  <TPSA>  (41) 
75.5299987792969

>  <FSP3>  (41) 
0.632

>  <QED>  (41) 
0.822

$$$$
Z4000205569
     RDKit          3D

 16 16  0  0  0  0  0  0  0  0999 V2000
  -13.9194   14.1846   72.1955 C   0  0  0  0  0  0  0  0  0  0  0  0
  -13.3758   13.8460   70.9564 C   0  0  0  0  0  0  0  0  0  0  0  0
  -13.3522   15.2128   72.9485 C   0  0  0  0  0  0  0  0  0  0  0  0
  -11.6977   15.5636   71.2232 C   0  0  0  0  0  0  0  0  0  0  0  0
  -12.2650   14.5354   70.4702 C   0  0  0  0  0  0  0  0  0  0  0  0
  -12.2413   15.9022   72.4623 C   0  0  0  0  0  0  0  0  0  0  0  0
  -11.6917   14.1779   69.1662 C   0  0  0  0  0  0  0  0  0  0  0  0
  -11.3941   13.0036   64.2055 C   0  0  0  0  0  0  0  0  0  0  0  0
  -12.2247   14.2407   64.5285 C   0  0  0  0  0  0  0  0  0  0  0  0
  -12.2580   11.7535   64.1186 C   0  0  0  0  0  0  0  0  0  0  0  0
  -12.9133   14.1179   65.8803 C   0  0  0  0  0  0  0  0  0  0  0  0
  -10.4260   13.7746   69.1421 N   0  0  0  0  0  0  0  0  0  0  0  0
  -12.4837   14.2830   68.1056 N   0  0  0  0  0  0  0  0  0  0  0  0
  -13.2150   11.9274   63.0828 O   0  0  0  0  0  0  0  0  0  0  0  0
  -11.9245   13.9437   66.8856 O   0  0  0  0  0  0  0  0  0  0  0  0
  -11.6974   16.8903   73.1850 F   0  0  0  0  0  0  0  0  0  0  0  0
  1  2  2  0
  1  3  1  0
  2  5  1  0
  3  6  2  0
  4  5  2  0
  4  6  1  0
  5  7  1  0
  6 16  1  0
  7 12  1  0
  7 13  2  0
  8  9  1  0
  8 10  1  0
  9 11  1  0
 10 14  1  0
 11 15  1  0
 13 15  1  0
M  CHG  1  13   1
M  END
>  <idnumber>  (42) 
Z4000205569

>  <Chemgauss4>  (42) 
-12.2185935974121

>  <Hetero-Bemis-Murcko>  (42) 
c1ccccc1

>  <MW>  (42) 
226.251

>  <HBD>  (42) 
2

>  <HBA>  (42) 
3

>  <RotBonds>  (42) 
6

>  <XLogP>  (42) 
1.92499995231628

>  <sLogP>  (42) 
1.235

>  <TPSA>  (42) 
69.4499969482422

>  <FSP3>  (42) 
0.364

>  <QED>  (42) 
0.332

$$$$
Z1992028043
     RDKit          3D

 32 35  0  0  1  0  0  0  0  0999 V2000
  -12.6121   15.8744   73.2990 C   0  0  0  0  0  0  0  0  0  0  0  0
  -13.2715   14.6754   73.0489 C   0  0  0  0  0  0  0  0  0  0  0  0
   -8.3807    7.0906   70.1072 C   0  0  0  0  0  0  0  0  0  0  0  0
   -9.0820    5.9523   70.5047 C   0  0  0  0  0  0  0  0  0  0  0  0
  -11.8596   16.4777   72.2922 C   0  0  0  0  0  0  0  0  0  0  0  0
  -13.1791   14.0796   71.7916 C   0  0  0  0  0  0  0  0  0  0  0  0
   -9.0729    8.2521   69.7646 C   0  0  0  0  0  0  0  0  0  0  0  0
  -10.4756    5.9755   70.5595 C   0  0  0  0  0  0  0  0  0  0  0  0
  -12.1186   13.3476   65.0095 C   0  0  0  0  0  0  0  0  0  0  0  0
  -12.7280   14.0125   66.0474 C   0  0  0  0  0  0  0  0  0  0  0  0
  -10.5809   13.7049   66.4371 C   0  0  0  0  0  0  0  0  0  0  0  0
  -11.7504   15.8846   71.0244 C   0  0  0  0  0  0  0  0  0  0  0  0
  -12.4254   14.6765   70.7662 C   0  0  0  0  0  0  0  0  0  0  0  0
  -10.4665    8.2753   69.8194 C   0  0  0  0  0  0  0  0  0  0  0  0
  -11.1679    7.1370   70.2169 C   0  0  0  0  0  0  0  0  0  0  0  0
  -10.5804   10.6534   69.0600 C   0  0  0  0  0  0  0  0  0  0  0  0
  -11.6182   11.6959   68.7712 C   0  0  0  0  0  0  0  0  0  0  0  0
  -10.9648   16.6018   69.9556 C   0  0  0  0  0  0  0  0  0  0  0  0
  -10.6292   15.7272   68.7475 C   0  0  0  0  0  0  0  0  0  0  0  0
  -12.3257   13.9804   69.4230 C   0  0  1  0  0  0  0  0  0  0  0  0
  -11.8718   14.9410   68.2944 C   0  0  2  0  0  0  0  0  0  0  0  0
  -14.1656    6.3184   71.9072 C   0  0  0  0  0  0  0  0  0  0  0  0
  -12.3084    7.8717   72.5601 C   0  0  0  0  0  0  0  0  0  0  0  0
  -14.2031    8.7040   71.1439 C   0  0  0  0  0  0  0  0  0  0  0  0
  -13.3032    7.5024   71.4548 C   0  0  0  0  0  0  0  0  0  0  0  0
  -10.7822   13.1590   65.2584 N   0  0  0  0  0  0  0  0  0  0  0  0
  -11.7304   14.2342   66.9545 N   0  0  0  0  0  0  0  0  0  0  0  0
  -11.1465    9.4642   69.4676 N   0  0  0  0  0  0  0  0  0  0  0  0
  -12.5797    7.1373   70.2782 N   0  0  0  0  0  0  0  0  0  0  0  0
  -11.4575   12.8259   69.5362 N   0  0  0  0  0  0  0  0  0  0  0  0
   -9.4165   10.9752   68.8882 O   0  0  0  0  0  0  0  0  0  0  0  0
  -12.4516   11.4517   67.9135 O   0  0  0  0  0  0  0  0  0  0  0  0
  1  2  2  0
  1  5  1  0
  2  6  1  0
  3  4  2  0
  3  7  1  0
  4  8  1  0
  5 12  2  0
  6 13  2  0
  7 14  2  0
  8 15  2  0
  9 10  2  0
  9 26  1  0
 10 27  1  0
 11 26  2  0
 11 27  1  0
 12 13  1  0
 12 18  1  0
 13 20  1  0
 14 15  1  0
 14 28  1  0
 15 29  1  0
 16 17  1  0
 16 28  1  0
 16 31  2  0
 17 30  1  0
 17 32  2  0
 18 19  1  0
 19 21  1  0
 20 21  1  0
 20 30  1  1
 21 27  1  6
 22 25  1  0
 23 25  1  0
 24 25  1  0
 25 29  1  0
M  END
>  <idnumber>  (43) 
Z1992028043

>  <Chemgauss4>  (43) 
-12.3990745544434

>  <Hetero-Bemis-Murcko>  (43) 
c1ccc(cc1)NCCNC2c3ccccc3CCC2n4ccnc4

>  <MW>  (43) 
431.54

>  <HBD>  (43) 
3

>  <HBA>  (43) 
5

>  <RotBonds>  (43) 
4

>  <XLogP>  (43) 
3.0290002822876

>  <sLogP>  (43) 
4.077

>  <TPSA>  (43) 
88.0499954223633

>  <FSP3>  (43) 
0.32

>  <QED>  (43) 
0.543

$$$$
Z3301761268
     RDKit          3D

 18 21  0  0  1  0  0  0  0  0999 V2000
  -11.3170   12.1608   65.1553 C   0  0  0  0  0  0  0  0  0  0  0  0
  -11.2969   13.3782   65.8591 C   0  0  0  0  0  0  0  0  0  0  0  0
  -10.0222   13.8581   65.6713 C   0  0  0  0  0  0  0  0  0  0  0  0
  -11.8755   14.5364   69.8231 C   0  0  0  0  0  0  0  0  0  0  0  0
  -12.3313   14.1035   66.6395 C   0  0  0  0  0  0  0  0  0  0  0  0
   -9.4565   15.1106   66.2237 C   0  0  0  0  0  0  0  0  0  0  0  0
  -10.6046   16.0090   66.7312 C   0  0  0  0  0  0  0  0  0  0  0  0
  -12.2435   16.3828   73.0979 C   0  0  0  0  0  0  0  0  0  0  0  0
  -13.1709   15.5889   73.9751 C   0  0  0  0  0  0  0  0  0  0  0  0
  -13.7084   14.5762   71.2433 C   0  0  0  0  0  0  0  0  0  0  0  0
  -12.1062   14.8876   73.1780 C   0  0  0  0  0  0  0  0  0  0  0  0
  -12.4811   14.0329   72.0097 C   0  0  2  0  0  0  0  0  0  0  0  0
  -11.6970   15.2257   67.4965 C   0  0  2  0  0  0  0  0  0  0  0  0
  -10.1445   11.8867   64.5708 N   0  0  0  0  0  0  0  0  0  0  0  0
   -9.3736   12.9400   64.9048 N   0  0  0  0  0  0  0  0  0  0  0  0
  -11.3893   14.0197   71.0254 N   0  0  0  0  0  0  0  0  0  0  0  0
  -13.2240   14.8884   69.8965 N   0  0  0  0  0  0  0  0  0  0  0  0
  -11.1419   14.6769   68.7396 N   0  0  0  0  0  0  0  0  0  0  0  0
  1  2  1  0
  1 14  2  0
  2  3  2  0
  2  5  1  0
  3  6  1  0
  3 15  1  0
  4 16  1  0
  4 17  2  0
  4 18  1  0
  5 13  1  0
  6  7  1  0
  7 13  1  0
  8  9  1  0
  8 11  1  0
  9 11  1  0
 10 12  1  0
 10 17  1  0
 12 11  1  1
 12 16  1  0
 13 18  1  1
 14 15  1  0
M  CHG  1  17   1
M  END
>  <idnumber>  (44) 
Z3301761268

>  <Chemgauss4>  (44) 
-12.2093315124512

>  <Hetero-Bemis-Murcko>  (44) 
c1c2c([nH]n1)CCC(C2)NC3=[NH+]CC(N3)C4CC4

>  <MW>  (44) 
245.33

>  <HBD>  (44) 
3

>  <HBA>  (44) 
4

>  <RotBonds>  (44) 
2

>  <XLogP>  (44) 
0.0179998353123665

>  <sLogP>  (44) 
0.594

>  <TPSA>  (44) 
66.7099990844727

>  <FSP3>  (44) 
0.692

>  <QED>  (44) 
0.714

$$$$
Z2518219944
     RDKit          3D

 20 21  0  0  1  0  0  0  0  0999 V2000
  -11.9630   13.8420   69.4149 C   0  0  0  0  0  0  0  0  0  0  0  0
  -13.8859   15.6857   73.2018 C   0  0  0  0  0  0  0  0  0  0  0  0
  -12.4164   15.9442   73.5106 C   0  0  0  0  0  0  0  0  0  0  0  0
  -11.4433    5.8181   69.4262 C   0  0  0  0  0  0  0  0  0  0  0  0
  -14.1458   14.4947   72.2828 C   0  0  0  0  0  0  0  0  0  0  0  0
  -11.5363   16.1701   72.2834 C   0  0  0  0  0  0  0  0  0  0  0  0
  -11.2501    6.5163   68.0843 C   0  0  0  0  0  0  0  0  0  0  0  0
  -12.0823    6.7525   70.4479 C   0  0  0  0  0  0  0  0  0  0  0  0
  -13.7207   14.7522   70.8407 C   0  0  0  0  0  0  0  0  0  0  0  0
  -11.2657   14.8898   71.4993 C   0  0  0  0  0  0  0  0  0  0  0  0
  -10.4741    7.8171   68.2323 C   0  0  0  0  0  0  0  0  0  0  0  0
  -11.3036    8.0526   70.5874 C   0  0  0  0  0  0  0  0  0  0  0  0
  -10.3770   12.3249   68.2103 C   0  0  0  0  0  0  0  0  0  0  0  0
  -10.5154   10.0564   69.3296 C   0  0  0  0  0  0  0  0  0  0  0  0
  -10.9518   10.9104   68.1449 C   0  0  1  0  0  0  0  0  0  0  0  0
  -12.3114   14.4896   70.5623 N   0  0  0  0  0  0  0  0  0  0  0  0
  -12.7613   13.9872   68.2851 N   0  0  0  0  0  0  0  0  0  0  0  0
  -10.8145   13.0494   69.4027 N   0  0  0  0  0  0  0  0  0  0  0  0
  -11.1730    8.7074   69.2326 N   0  0  0  0  0  0  0  0  0  0  0  0
  -12.3759   10.9861   68.1262 O   0  0  0  0  0  0  0  0  0  0  0  0
  1 16  1  0
  1 17  1  0
  1 18  2  0
  2  3  1  0
  2  5  1  0
  3  6  1  0
  4  7  1  0
  4  8  1  0
  5  9  1  0
  6 10  1  0
  7 11  1  0
  8 12  1  0
  9 16  1  0
 10 16  1  0
 11 19  1  0
 12 19  1  0
 13 15  1  0
 13 18  1  0
 14 15  1  0
 14 19  1  0
 15 20  1  1
M  CHG  2  18   1  19   1
M  END
>  <idnumber>  (45) 
Z2518219944

>  <Chemgauss4>  (45) 
-12.1582183837891

>  <Hetero-Bemis-Murcko>  (45) 
C1CCCN(CC1)C=[NH+]CCC[NH+]2CCCCC2

>  <MW>  (45) 
282.432

>  <HBD>  (45) 
2

>  <HBA>  (45) 
3

>  <RotBonds>  (45) 
4

>  <XLogP>  (45) 
0.568999826908112

>  <sLogP>  (45) 
1.024

>  <TPSA>  (45) 
67.9000015258789

>  <FSP3>  (45) 
0.933

>  <QED>  (45) 
0.597

$$$$
Z810081396
     RDKit          3D

 33 36  0  0  1  0  0  0  0  0999 V2000
  -10.6031   15.9990   70.5369 C   0  0  0  0  0  0  0  0  0  0  0  0
   -8.2832    9.0709   70.5161 C   0  0  0  0  0  0  0  0  0  0  0  0
  -10.4744   15.2596   69.3612 C   0  0  0  0  0  0  0  0  0  0  0  0
   -9.2887    8.1516   70.8149 C   0  0  0  0  0  0  0  0  0  0  0  0
  -11.7227   15.8259   71.3507 C   0  0  0  0  0  0  0  0  0  0  0  0
   -8.6062   10.2864   69.9129 C   0  0  0  0  0  0  0  0  0  0  0  0
  -12.5850   14.1739   69.8130 C   0  0  0  0  0  0  0  0  0  0  0  0
  -10.9404    9.6632   69.9071 C   0  0  0  0  0  0  0  0  0  0  0  0
  -11.4653   14.3470   68.9992 C   0  0  0  0  0  0  0  0  0  0  0  0
  -10.6173    8.4477   70.5104 C   0  0  0  0  0  0  0  0  0  0  0  0
  -12.7136   14.9134   70.9887 C   0  0  0  0  0  0  0  0  0  0  0  0
   -9.9348   10.5825   69.6084 C   0  0  0  0  0  0  0  0  0  0  0  0
  -11.7777    7.1376   72.3409 C   0  0  0  0  0  0  0  0  0  0  0  0
  -13.8035    8.0300   71.8194 C   0  0  0  0  0  0  0  0  0  0  0  0
  -11.3181   12.0772   68.1329 C   0  0  0  0  0  0  0  0  0  0  0  0
  -10.0080   13.7958   66.9265 C   0  0  0  0  0  0  0  0  0  0  0  0
  -12.5125   13.7913   66.7456 C   0  0  0  0  0  0  0  0  0  0  0  0
   -9.9825   13.1128   65.5614 C   0  0  0  0  0  0  0  0  0  0  0  0
  -12.3335   13.1302   65.3806 C   0  0  0  0  0  0  0  0  0  0  0  0
  -11.7142    7.4441   70.8367 C   0  0  2  0  0  0  0  0  0  0  0  0
  -11.3214   13.5278   67.6983 C   0  0  0  0  0  0  0  0  0  0  0  0
  -11.6554    6.1020   70.0959 C   0  0  0  0  0  0  0  0  0  0  0  0
  -13.9111   14.7288   71.8587 C   0  0  0  0  0  0  0  0  0  0  0  0
  -13.0219    7.4844   72.8120 N   0  0  0  0  0  0  0  0  0  0  0  0
  -13.0356    8.0285   70.6540 N   0  0  0  0  0  0  0  0  0  0  0  0
  -10.2623   11.8160   68.9970 N   0  0  0  0  0  0  0  0  0  0  0  0
  -10.8639    6.6540   72.9961 O   0  0  0  0  0  0  0  0  0  0  0  0
  -14.9477    8.4472   71.9334 O   0  0  0  0  0  0  0  0  0  0  0  0
  -12.1762   11.2988   67.7298 O   0  0  0  0  0  0  0  0  0  0  0  0
  -11.1022   13.5173   64.7798 O   0  0  0  0  0  0  0  0  0  0  0  0
  -13.9039   15.5170   72.9742 F   0  0  0  0  0  0  0  0  0  0  0  0
  -15.0911   15.0105   71.2313 F   0  0  0  0  0  0  0  0  0  0  0  0
  -14.0357   13.4488   72.3157 F   0  0  0  0  0  0  0  0  0  0  0  0
  1  3  2  0
  1  5  1  0
  2  4  2  0
  2  6  1  0
  3  9  1  0
  4 10  1  0
  5 11  2  0
  6 12  2  0
  7  9  2  0
  7 11  1  0
  8 10  2  0
  8 12  1  0
  9 21  1  0
 10 20  1  0
 11 23  1  0
 12 26  1  0
 13 20  1  0
 13 24  1  0
 13 27  2  0
 14 24  1  0
 14 25  1  0
 14 28  2  0
 15 21  1  0
 15 26  1  0
 15 29  2  0
 16 18  1  0
 16 21  1  0
 17 19  1  0
 17 21  1  0
 18 30  1  0
 19 30  1  0
 20 22  1  6
 20 25  1  0
 23 31  1  0
 23 32  1  0
 23 33  1  0
M  END
>  <idnumber>  (46) 
Z810081396

>  <Chemgauss4>  (46) 
-12.8178615570068

>  <Hetero-Bemis-Murcko>  (46) 
c1ccc(cc1)C2(CCOCC2)CNc3cccc(c3)C4CNCN4

>  <MW>  (46) 
461.44

>  <HBD>  (46) 
3

>  <HBA>  (46) 
4

>  <RotBonds>  (46) 
4

>  <XLogP>  (46) 
3.0889995098114

>  <sLogP>  (46) 
3.447

>  <TPSA>  (46) 
96.5299911499023

>  <FSP3>  (46) 
0.348

>  <QED>  (46) 
0.608

$$$$
Z268684840
     RDKit          3D

 22 23  0  0  1  0  0  0  0  0999 V2000
  -11.9868    6.4325   71.8690 C   0  0  0  0  0  0  0  0  0  0  0  0
  -11.7229   11.3117   68.9508 C   0  0  0  0  0  0  0  0  0  0  0  0
  -11.5158    6.5738   70.4400 C   0  0  0  0  0  0  0  0  0  0  0  0
  -11.7065   16.1781   69.1705 C   0  0  0  0  0  0  0  0  0  0  0  0
  -11.8295   16.4609   70.6702 C   0  0  0  0  0  0  0  0  0  0  0  0
  -11.1806   14.7752   68.8966 C   0  0  0  0  0  0  0  0  0  0  0  0
  -12.8389   14.1439   70.7478 C   0  0  0  0  0  0  0  0  0  0  0  0
  -13.4538    8.4489   71.5237 C   0  0  0  0  0  0  0  0  0  0  0  0
  -10.7069    7.8427   70.2203 C   0  0  0  0  0  0  0  0  0  0  0  0
  -12.4294    9.4914   71.1089 C   0  0  0  0  0  0  0  0  0  0  0  0
  -12.0368   15.1953   71.5208 C   0  0  2  0  0  0  0  0  0  0  0  0
  -12.1251   13.7029   69.4581 C   0  0  2  0  0  0  0  0  0  0  0  0
  -10.8241   10.1643   69.3378 C   0  0  0  0  0  0  0  0  0  0  0  0
  -12.7086   15.5399   72.8484 C   0  0  0  0  0  0  0  0  0  0  0  0
  -12.8801    7.3772   72.3144 N   0  0  0  0  0  0  0  0  0  0  0  0
  -11.4061   12.4633   69.6527 N   0  0  0  0  0  0  0  0  0  0  0  0
  -11.6121    9.0195   69.9284 N   0  0  1  0  0  0  0  0  0  0  0  0
  -11.5852    5.5125   72.5830 O   0  0  0  0  0  0  0  0  0  0  0  0
  -12.6170   11.2152   68.1144 O   0  0  0  0  0  0  0  0  0  0  0  0
  -11.9715   16.4402   73.5158 F   0  0  0  0  0  0  0  0  0  0  0  0
  -13.9274   16.0540   72.6262 F   0  0  0  0  0  0  0  0  0  0  0  0
  -12.8324   14.4359   73.6002 F   0  0  0  0  0  0  0  0  0  0  0  0
  1  3  1  0
  1 15  1  0
  1 18  2  0
  2 13  1  0
  2 16  1  0
  2 19  2  0
  3  9  1  0
  4  5  1  0
  4  6  1  0
  5 11  1  0
  6 12  1  0
  7 11  1  0
  7 12  1  0
  8 10  1  0
  8 15  1  0
  9 17  1  0
 10 17  1  0
 11 14  1  1
 12 16  1  1
 17 13  1  1
 14 20  1  0
 14 21  1  0
 14 22  1  0
M  CHG  1  17   1
M  END
>  <idnumber>  (47) 
Z268684840

>  <Chemgauss4>  (47) 
-12.9728355407715

>  <Hetero-Bemis-Murcko>  (47) 
C1CCC(CC1)NCC[NH+]2CCCNCC2

>  <MW>  (47) 
321.343

>  <HBD>  (47) 
2

>  <HBA>  (47) 
3

>  <RotBonds>  (47) 
3

>  <XLogP>  (47) 
0.82399970293045

>  <sLogP>  (47) 
1.046

>  <TPSA>  (47) 
62.6399993896484

>  <FSP3>  (47) 
0.857

>  <QED>  (47) 
0.817

$$$$
Z3365262949
     RDKit          3D

 21 23  0  0  1  0  0  0  0  0999 V2000
  -13.3161   13.7793   72.1178 C   0  0  0  0  0  0  0  0  0  0  0  0
  -13.4072   14.4189   73.3559 C   0  0  0  0  0  0  0  0  0  0  0  0
  -12.0442   16.2678   72.5530 C   0  0  0  0  0  0  0  0  0  0  0  0
  -12.5947   14.3980   71.1093 C   0  0  0  0  0  0  0  0  0  0  0  0
  -11.9692   15.6327   71.3248 C   0  0  0  0  0  0  0  0  0  0  0  0
  -12.7752   15.6536   73.5721 C   0  0  0  0  0  0  0  0  0  0  0  0
  -11.2249   16.0745   70.1044 C   0  0  0  0  0  0  0  0  0  0  0  0
  -11.8806   15.1982   69.0235 C   0  0  0  0  0  0  0  0  0  0  0  0
  -11.8745   12.8216   64.5258 C   0  0  0  0  0  0  0  0  0  0  0  0
  -10.9371   12.5052   63.3560 C   0  0  0  0  0  0  0  0  0  0  0  0
   -9.9552   11.5472   65.3093 C   0  0  0  0  0  0  0  0  0  0  0  0
  -12.3343   13.8999   69.7192 C   0  0  1  0  0  0  0  0  0  0  0  0
  -11.3500   12.0174   65.7281 C   0  0  1  0  0  0  0  0  0  0  0  0
  -10.1417   11.2980   63.8237 C   0  0  2  0  0  0  0  0  0  0  0  0
  -11.3443   12.8077   67.0175 C   0  0  0  0  0  0  0  0  0  0  0  0
  -12.8766   16.2775   74.8348 N   0  0  0  0  0  0  0  0  0  0  0  0
  -11.3114   12.8875   69.6967 N   0  0  0  0  0  0  0  0  0  0  0  0
   -8.8463   11.2077   63.1285 N   0  0  0  0  0  0  0  0  0  0  0  0
  -12.5504   10.9848   68.4572 O   0  0  0  0  0  0  0  0  0  0  0  0
  -10.0304   11.0590   68.4391 O   0  0  0  0  0  0  0  0  0  0  0  0
  -11.3119   11.7382   68.4377 S   0  0  0  0  0  0  0  0  0  0  0  0
  1  2  2  0
  1  4  1  0
  2  6  1  0
  3  5  1  0
  3  6  2  0
  4  5  2  0
  4 12  1  0
  5  7  1  0
  6 16  1  0
  7  8  1  0
  8 12  1  0
  9 10  1  0
  9 13  1  0
 10 14  1  0
 11 13  1  0
 11 14  1  0
 12 17  1  1
 13 15  1  1
 14 18  1  6
 15 21  1  0
 17 21  1  0
 19 21  2  0
 20 21  2  0
M  CHG  1  18   1
M  END
>  <idnumber>  (48) 
Z3365262949

>  <Chemgauss4>  (48) 
-12.1960725784302

>  <Hetero-Bemis-Murcko>  (48) 
c1ccc2c(c1)CCC2N[SH4]CC3CCCC3

>  <MW>  (48) 
309.435

>  <HBD>  (48) 
3

>  <HBA>  (48) 
4

>  <RotBonds>  (48) 
4

>  <XLogP>  (48) 
1.03499972820282

>  <sLogP>  (48) 
1.303

>  <TPSA>  (48) 
99.8300018310547

>  <FSP3>  (48) 
0.6

>  <QED>  (48) 
0.73

$$$$
Z2197598526
     RDKit          3D

 24 26  0  0  1  0  0  0  0  0999 V2000
  -12.8052   15.6666   73.3256 C   0  0  0  0  0  0  0  0  0  0  0  0
  -12.2595   16.4300   72.2936 C   0  0  0  0  0  0  0  0  0  0  0  0
  -13.1738   14.3415   73.0932 C   0  0  0  0  0  0  0  0  0  0  0  0
  -10.6323    9.5541   71.4566 C   0  0  0  0  0  0  0  0  0  0  0  0
  -10.3991    7.4250   72.8574 C   0  0  0  0  0  0  0  0  0  0  0  0
  -10.9012    8.2516   71.8557 C   0  0  0  0  0  0  0  0  0  0  0  0
  -12.4512   14.5433   70.7966 C   0  0  0  0  0  0  0  0  0  0  0  0
  -12.0826   15.8684   71.0291 C   0  0  0  0  0  0  0  0  0  0  0  0
  -12.9969   13.7799   71.8287 C   0  0  0  0  0  0  0  0  0  0  0  0
  -11.4919    9.7712   70.3852 C   0  0  0  0  0  0  0  0  0  0  0  0
  -11.8542    7.7076   71.0881 C   0  0  0  0  0  0  0  0  0  0  0  0
  -11.0555    6.1995   72.7846 C   0  0  0  0  0  0  0  0  0  0  0  0
  -11.6352   11.0026   69.5666 C   0  0  0  0  0  0  0  0  0  0  0  0
  -10.4336   13.1382   67.7740 C   0  0  0  0  0  0  0  0  0  0  0  0
  -12.2441   13.9678   69.4100 C   0  0  2  0  0  0  0  0  0  0  0  0
  -10.8496   13.3321   69.2316 C   0  0  1  0  0  0  0  0  0  0  0  0
  -12.2408    8.6223   70.1678 N   0  0  0  0  0  0  0  0  0  0  0  0
  -10.8107   12.0574   69.9181 N   0  0  0  0  0  0  0  0  0  0  0  0
  -12.4658   11.0285   68.6622 O   0  0  0  0  0  0  0  0  0  0  0  0
  -12.4683   14.9662   68.4148 O   0  0  0  0  0  0  0  0  0  0  0  0
  -11.5578   16.6117   70.0447 F   0  0  0  0  0  0  0  0  0  0  0  0
  -12.2403    6.1444   71.4984 S   0  0  0  0  0  0  0  0  0  0  0  0
  -13.4662   12.1375   71.5795 Cl  0  0  0  0  0  0  0  0  0  0  0  0
  -10.8251    4.8213   73.7793 Cl  0  0  0  0  0  0  0  0  0  0  0  0
  1  2  2  0
  1  3  1  0
  2  8  1  0
  3  9  2  0
  4  6  1  0
  4 10  2  0
  5  6  1  0
  5 12  2  0
  6 11  2  0
  7  8  2  0
  7  9  1  0
  7 15  1  0
  8 21  1  0
  9 23  1  0
 10 13  1  0
 10 17  1  0
 11 17  1  0
 11 22  1  0
 12 22  1  0
 12 24  1  0
 13 18  1  0
 13 19  2  0
 16 14  1  6
 15 16  1  0
 15 20  1  6
 16 18  1  0
M  END
>  <idnumber>  (49) 
Z2197598526

>  <Chemgauss4>  (49) 
-12.1927242279053

>  <Hetero-Bemis-Murcko>  (49) 
c1ccc(cc1)CCNCc2cc3ccsc3[nH]2

>  <MW>  (49) 
387.263

>  <HBD>  (49) 
3

>  <HBA>  (49) 
3

>  <RotBonds>  (49) 
4

>  <XLogP>  (49) 
4.64900064468384

>  <sLogP>  (49) 
4.527

>  <TPSA>  (49) 
65.1199951171875

>  <FSP3>  (49) 
0.188

>  <QED>  (49) 
0.616

$$$$
Z3313607712
     RDKit          3D

 25 26  0  0  1  0  0  0  0  0999 V2000
  -12.0418   14.5100   66.5363 C   0  0  0  0  0  0  0  0  0  0  0  0
  -12.2903   14.5509   65.1644 C   0  0  0  0  0  0  0  0  0  0  0  0
  -13.6688    9.5195   71.3604 C   0  0  0  0  0  0  0  0  0  0  0  0
  -10.7703   12.4764   66.2454 C   0  0  0  0  0  0  0  0  0  0  0  0
  -13.7689    8.2314   71.8382 C   0  0  0  0  0  0  0  0  0  0  0  0
  -11.4761    8.7812   71.1381 C   0  0  0  0  0  0  0  0  0  0  0  0
  -11.2817   13.4728   67.0768 C   0  0  0  0  0  0  0  0  0  0  0  0
  -12.3406    9.8381   70.9547 C   0  0  0  0  0  0  0  0  0  0  0  0
  -11.0188   12.5172   64.8735 C   0  0  0  0  0  0  0  0  0  0  0  0
  -11.7789   13.5545   64.3330 C   0  0  0  0  0  0  0  0  0  0  0  0
  -11.7603   15.8823   71.6032 C   0  0  0  0  0  0  0  0  0  0  0  0
  -14.0763   14.9061   71.3999 C   0  0  0  0  0  0  0  0  0  0  0  0
  -12.4856   14.0250   73.1466 C   0  0  0  0  0  0  0  0  0  0  0  0
  -10.4625   11.4431   63.9980 C   0  0  0  0  0  0  0  0  0  0  0  0
  -12.1114   14.1279   69.3572 C   0  0  0  0  0  0  0  0  0  0  0  0
  -12.8320   12.3023   70.8928 C   0  0  0  0  0  0  0  0  0  0  0  0
  -11.0114   13.4299   68.5643 C   0  0  2  0  0  0  0  0  0  0  0  0
  -11.9301   11.1798   70.3902 C   0  0  2  0  0  0  0  0  0  0  0  0
  -12.6152   14.6240   71.7469 C   0  0  0  0  0  0  0  0  0  0  0  0
  -12.1029   13.6122   70.7701 N   0  0  2  0  0  0  0  0  0  0  0  0
  -12.0327   13.6091   62.9954 O   0  0  0  0  0  0  0  0  0  0  0  0
   -9.6011   12.0254   63.0284 O   0  0  0  0  0  0  0  0  0  0  0  0
   -9.7676   14.0899   68.7999 O   0  0  0  0  0  0  0  0  0  0  0  0
  -12.0228   11.1005   68.9677 O   0  0  0  0  0  0  0  0  0  0  0  0
  -12.2659    7.4120   71.7966 S   0  0  0  0  0  0  0  0  0  0  0  0
  1  2  2  0
  1  7  1  0
  2 10  1  0
  3  5  2  0
  3  8  1  0
  4  7  2  0
  4  9  1  0
  5 25  1  0
  6  8  2  0
  6 25  1  0
  7 17  1  0
  8 18  1  0
  9 10  2  0
  9 14  1  0
 10 21  1  0
 11 19  1  0
 12 19  1  0
 13 19  1  0
 14 22  1  0
 15 17  1  0
 20 15  1  6
 16 18  1  0
 16 20  1  0
 17 23  1  6
 18 24  1  6
 19 20  1  0
M  CHG  1  20   1
M  END
>  <idnumber>  (50) 
Z3313607712

>  <Chemgauss4>  (50) 
-12.1519527435303

>  <Hetero-Bemis-Murcko>  (50) 
c1ccc(cc1)CC[NH2+]CCc2ccsc2

>  <MW>  (50) 
365.495

>  <HBD>  (50) 
4

>  <HBA>  (50) 
6

>  <RotBonds>  (50) 
7

>  <XLogP>  (50) 
1.74100005626678

>  <sLogP>  (50) 
2.814

>  <TPSA>  (50) 
85.3600006103516

>  <FSP3>  (50) 
0.474

>  <QED>  (50) 
0.606

$$$$
Z2397503389
     RDKit          3D

 28 32  0  0  1  0  0  0  0  0999 V2000
  -10.2334    6.9058   73.5374 C   0  0  0  0  0  0  0  0  0  0  0  0
  -11.6182    5.3351   72.8663 C   0  0  0  0  0  0  0  0  0  0  0  0
  -11.2798    6.6456   72.6324 C   0  0  0  0  0  0  0  0  0  0  0  0
  -11.0726   10.1656   69.0880 C   0  0  0  0  0  0  0  0  0  0  0  0
  -11.8397   11.4162   68.8675 C   0  0  0  0  0  0  0  0  0  0  0  0
  -13.6727   15.9521   73.3307 C   0  0  0  0  0  0  0  0  0  0  0  0
  -13.7081   15.9788   70.8254 C   0  0  0  0  0  0  0  0  0  0  0  0
  -13.6490   13.7919   72.0613 C   0  0  0  0  0  0  0  0  0  0  0  0
  -11.6609   16.7275   72.0522 C   0  0  0  0  0  0  0  0  0  0  0  0
  -11.6018   14.5405   73.2882 C   0  0  0  0  0  0  0  0  0  0  0  0
  -10.9037    8.1322   70.5900 C   0  0  0  0  0  0  0  0  0  0  0  0
  -12.5961    9.7998   71.0108 C   0  0  0  0  0  0  0  0  0  0  0  0
  -11.8951    7.5923   71.6315 C   0  0  2  0  0  0  0  0  0  0  0  0
  -14.1958   15.2296   72.0771 C   0  0  1  0  0  0  0  0  0  0  0  0
  -12.1350   15.9843   73.3142 C   0  0  2  0  0  0  0  0  0  0  0  0
  -12.1677   16.0045   70.7870 C   0  0  1  0  0  0  0  0  0  0  0  0
  -12.1084   13.8089   72.0278 C   0  0  2  0  0  0  0  0  0  0  0  0
  -11.5897   14.5674   70.7809 C   0  0  1  0  0  0  0  0  0  0  0  0
  -12.4708    8.8879   72.2212 C   0  0  2  0  0  0  0  0  0  0  0  0
  -10.7633    3.5894   74.4476 C   0  0  0  0  0  0  0  0  0  0  0  0
  -11.8719   13.8217   69.4748 C   0  0  0  0  0  0  0  0  0  0  0  0
   -9.9273    5.8459   74.2903 N   0  0  0  0  0  0  0  0  0  0  0  0
  -10.7865    4.9069   73.8589 N   0  0  0  0  0  0  0  0  0  0  0  0
  -11.4822    9.4047   70.1595 N   0  0  0  0  0  0  0  0  0  0  0  0
  -11.3093   12.5160   69.5375 N   0  0  0  0  0  0  0  0  0  0  0  0
  -13.7879    8.6568   72.8461 N   0  0  0  0  0  0  0  0  0  0  0  0
  -10.1651    9.9338   68.3020 O   0  0  0  0  0  0  0  0  0  0  0  0
  -12.8355   11.4204   68.1520 O   0  0  0  0  0  0  0  0  0  0  0  0
  1  3  1  0
  1 22  2  0
  2  3  2  0
  2 23  1  0
 13  3  1  1
  4  5  1  0
  4 24  1  0
  4 27  2  0
  5 25  1  0
  5 28  2  0
 14  6  1  1
 15  6  1  6
  7 14  1  0
 16  7  1  1
  8 14  1  0
 17  8  1  1
  9 15  1  0
  9 16  1  0
 10 15  1  0
 10 17  1  0
 11 13  1  0
 11 24  1  0
 12 19  1  0
 12 24  1  0
 13 19  1  0
 16 18  1  0
 17 18  1  0
 18 21  1  6
 19 26  1  6
 20 23  1  0
 21 25  1  0
 22 23  1  0
M  CHG  1  26   1
M  END
>  <idnumber>  (51) 
Z2397503389

>  <Chemgauss4>  (51) 
-12.1715526580811

>  <Hetero-Bemis-Murcko>  (51) 
c1c(cn[nH]1)C2CCN(C2)CCNCC3C4CC5CC(C4)CC3C5

>  <MW>  (51) 
385.512

>  <HBD>  (51) 
2

>  <HBA>  (51) 
5

>  <RotBonds>  (51) 
3

>  <XLogP>  (51) 
0.249999731779099

>  <sLogP>  (51) 
0.862

>  <TPSA>  (51) 
94.8699951171875

>  <FSP3>  (51) 
0.762

>  <QED>  (51) 
0.755

$$$$
Z3199077812
     RDKit          3D

 21 23  0  0  0  0  0  0  0  0999 V2000
  -10.6940   15.9505   69.6283 C   0  0  0  0  0  0  0  0  0  0  0  0
  -11.7116   11.6245   69.0463 C   0  0  0  0  0  0  0  0  0  0  0  0
  -13.4657   15.4059   71.7192 C   0  0  0  0  0  0  0  0  0  0  0  0
  -12.7229   15.4406   70.5227 C   0  0  0  0  0  0  0  0  0  0  0  0
  -11.4805   15.8954   70.7907 C   0  0  0  0  0  0  0  0  0  0  0  0
  -11.5512   15.4963   68.6410 C   0  0  0  0  0  0  0  0  0  0  0  0
  -12.5614   15.8655   72.6508 C   0  0  0  0  0  0  0  0  0  0  0  0
  -11.0429   11.7440   67.0725 C   0  0  0  0  0  0  0  0  0  0  0  0
  -11.2607   15.3481   67.2473 C   0  0  0  0  0  0  0  0  0  0  0  0
  -14.8565   14.9695   71.8375 C   0  0  0  0  0  0  0  0  0  0  0  0
  -12.6755   16.0814   74.1039 C   0  0  0  0  0  0  0  0  0  0  0  0
  -10.8845   11.6588   65.5754 C   0  0  0  0  0  0  0  0  0  0  0  0
  -10.6393   13.0140   64.8986 C   0  0  0  0  0  0  0  0  0  0  0  0
  -11.7388   14.0475   65.1353 C   0  0  0  0  0  0  0  0  0  0  0  0
  -12.0658   11.3030   67.7673 N   0  0  0  0  0  0  0  0  0  0  0  0
  -10.1272   12.3011   67.9097 N   0  0  0  0  0  0  0  0  0  0  0  0
  -10.5340   12.2369   69.1866 N   0  0  0  0  0  0  0  0  0  0  0  0
  -12.7835   15.1860   69.1795 N   0  0  0  0  0  0  0  0  0  0  0  0
  -11.9390   14.3358   66.5373 N   0  0  0  0  0  0  0  0  0  0  0  0
  -10.4154   16.0784   66.6738 O   0  0  0  0  0  0  0  0  0  0  0  0
  -11.3436   16.1717   72.1138 O   0  0  0  0  0  0  0  0  0  0  0  0
  1  5  1  0
  1  6  2  0
  2 15  2  0
  2 17  1  0
  3  4  1  0
  3  7  2  0
  3 10  1  0
  4  5  2  0
  4 18  1  0
  5 21  1  0
  6  9  1  0
  6 18  1  0
  7 11  1  0
  7 21  1  0
  8 12  1  0
  8 15  1  0
  8 16  2  0
  9 19  1  0
  9 20  2  0
 12 13  1  0
 13 14  1  0
 14 19  1  0
 16 17  1  0
M  END
>  <idnumber>  (52) 
Z3199077812

>  <Chemgauss4>  (52) 
-12.2543096542358

>  <Hetero-Bemis-Murcko>  (52) 
c1coc2c1[nH]c(c2)CNCCCc3nc[nH]n3

>  <MW>  (52) 
287.323

>  <HBD>  (52) 
3

>  <HBA>  (52) 
4

>  <RotBonds>  (52) 
5

>  <XLogP>  (52) 
1.02299988269806

>  <sLogP>  (52) 
1.858

>  <TPSA>  (52) 
99.5999984741211

>  <FSP3>  (52) 
0.357

>  <QED>  (52) 
0.623

$$$$
Z3346844500
     RDKit          3D

 20 22  0  0  1  0  0  0  0  0999 V2000
   -9.7061   12.9034   66.9383 C   0  0  0  0  0  0  0  0  0  0  0  0
   -9.5843   13.6562   68.1061 C   0  0  0  0  0  0  0  0  0  0  0  0
  -11.5602   14.9070   67.5072 C   0  0  0  0  0  0  0  0  0  0  0  0
  -10.7626   13.1390   66.0477 C   0  0  0  0  0  0  0  0  0  0  0  0
  -11.6872   14.1624   66.3269 C   0  0  0  0  0  0  0  0  0  0  0  0
  -10.5116   14.6554   68.3913 C   0  0  0  0  0  0  0  0  0  0  0  0
  -10.8549   12.3382   64.7713 C   0  0  0  0  0  0  0  0  0  0  0  0
  -12.8400   14.4312   65.4003 C   0  0  0  0  0  0  0  0  0  0  0  0
  -12.2441   12.3664   64.1466 C   0  0  0  0  0  0  0  0  0  0  0  0
  -11.0768   15.5925   72.0693 C   0  0  0  0  0  0  0  0  0  0  0  0
  -11.9922   13.7924   70.6735 C   0  0  0  0  0  0  0  0  0  0  0  0
  -12.1938   14.8619   72.8031 C   0  0  2  0  0  0  0  0  0  0  0  0
  -13.0598   14.2913   71.6604 C   0  0  0  0  0  0  0  0  0  0  0  0
  -13.9367   13.1276   72.1388 C   0  0  0  0  0  0  0  0  0  0  0  0
  -13.9633   15.3396   70.9848 C   0  0  0  0  0  0  0  0  0  0  0  0
  -10.3821   15.4619   69.6498 C   0  0  0  0  0  0  0  0  0  0  0  0
  -12.9051   15.7605   73.8053 C   0  0  0  0  0  0  0  0  0  0  0  0
  -12.6959   13.7857   64.0557 N   0  0  0  0  0  0  0  0  0  0  0  0
  -10.7945   14.7078   70.8742 N   0  0  1  0  0  0  0  0  0  0  0  0
  -11.9318   16.2026   74.8267 N   0  0  0  0  0  0  0  0  0  0  0  0
  1  2  2  0
  1  4  1  0
  2  6  1  0
  3  5  1  0
  3  6  2  0
  4  5  2  0
  4  7  1  0
  5  8  1  0
  6 16  1  0
  7  9  1  0
  8 18  1  0
  9 18  1  0
 10 12  1  0
 10 19  1  0
 11 13  1  0
 11 19  1  0
 12 13  1  0
 12 17  1  6
 13 14  1  0
 13 15  1  0
 19 16  1  6
 17 20  1  0
M  CHG  3  18   1  19   1  20   1
M  END
>  <idnumber>  (53) 
Z3346844500

>  <Chemgauss4>  (53) 
-12.1671590805054

>  <Hetero-Bemis-Murcko>  (53) 
c1cc2c(cc1C[NH+]3CCCC3)C[NH2+]CC2

>  <MW>  (53) 
273.424

>  <HBD>  (53) 
2

>  <HBA>  (53) 
3

>  <RotBonds>  (53) 
3

>  <XLogP>  (53) 
1.80999958515167

>  <sLogP>  (53) 
1.749

>  <TPSA>  (53) 
48.6900024414062

>  <FSP3>  (53) 
0.647

>  <QED>  (53) 
0.881

$$$$
Z2048683908
     RDKit          3D

 27 29  0  0  1  0  0  0  0  0999 V2000
  -14.1625   15.4698   71.7532 C   0  0  0  0  0  0  0  0  0  0  0  0
  -13.8769   15.6913   73.1045 C   0  0  0  0  0  0  0  0  0  0  0  0
  -11.5259   15.1529   72.7713 C   0  0  0  0  0  0  0  0  0  0  0  0
  -11.7949   14.9261   71.4109 C   0  0  0  0  0  0  0  0  0  0  0  0
  -13.0947   15.0888   70.9400 C   0  0  0  0  0  0  0  0  0  0  0  0
  -12.5827   15.5362   73.6066 C   0  0  0  0  0  0  0  0  0  0  0  0
  -11.7113   14.4794   69.3245 C   0  0  0  0  0  0  0  0  0  0  0  0
  -10.2526   11.8466   68.2189 C   0  0  0  0  0  0  0  0  0  0  0  0
  -11.5714   11.4446   68.7643 C   0  0  0  0  0  0  0  0  0  0  0  0
   -9.2842   15.2954   67.2606 C   0  0  0  0  0  0  0  0  0  0  0  0
  -10.8032   15.3115   67.1070 C   0  0  0  0  0  0  0  0  0  0  0  0
   -8.9470   13.8147   67.3279 C   0  0  0  0  0  0  0  0  0  0  0  0
  -11.2756   14.1008   67.9212 C   0  0  1  0  0  0  0  0  0  0  0  0
   -8.7742    6.3414   74.5159 C   0  0  0  0  0  0  0  0  0  0  0  0
  -10.0666    6.5350   73.7392 C   0  0  0  0  0  0  0  0  0  0  0  0
  -10.2346    7.9821   73.2847 C   0  0  0  0  0  0  0  0  0  0  0  0
  -12.8132   11.2337   70.8937 C   0  0  0  0  0  0  0  0  0  0  0  0
  -11.5061    8.1713   72.4697 C   0  0  0  0  0  0  0  0  0  0  0  0
  -12.7668    9.7715   71.2981 C   0  0  0  0  0  0  0  0  0  0  0  0
  -10.9496   14.5476   70.3932 N   0  0  0  0  0  0  0  0  0  0  0  0
  -13.0118   14.7967   69.6027 N   0  0  0  0  0  0  0  0  0  0  0  0
  -10.1375   13.1794   67.8834 N   0  0  0  0  0  0  0  0  0  0  0  0
  -11.6283   11.5647   70.1351 N   0  0  0  0  0  0  0  0  0  0  0  0
   -9.4101   10.9660   68.1207 O   0  0  0  0  0  0  0  0  0  0  0  0
  -12.4573   11.0630   68.0148 O   0  0  0  0  0  0  0  0  0  0  0  0
  -11.5948    9.5309   72.0664 O   0  0  0  0  0  0  0  0  0  0  0  0
  -12.2792   15.8205   75.2793 Cl  0  0  0  0  0  0  0  0  0  0  0  0
  1  2  2  0
  1  5  1  0
  2  6  1  0
  3  4  1  0
  3  6  2  0
  4  5  2  0
  4 20  1  0
  5 21  1  0
  6 27  1  0
 13  7  1  1
  7 20  2  0
  7 21  1  0
  8  9  1  0
  8 22  1  0
  8 24  2  0
  9 23  1  0
  9 25  2  0
 10 11  1  0
 10 12  1  0
 11 13  1  0
 12 22  1  0
 13 22  1  0
 14 15  1  0
 15 16  1  0
 16 18  1  0
 17 19  1  0
 17 23  1  0
 18 26  1  0
 19 26  1  0
M  END
>  <idnumber>  (54) 
Z2048683908

>  <Chemgauss4>  (54) 
-12.3145265579224

>  <Hetero-Bemis-Murcko>  (54) 
c1ccc2c(c1)[nH]c(n2)C3CCCN3

>  <MW>  (54) 
392.887

>  <HBD>  (54) 
2

>  <HBA>  (54) 
4

>  <RotBonds>  (54) 
7

>  <XLogP>  (54) 
2.50299978256226

>  <sLogP>  (54) 
2.813

>  <TPSA>  (54) 
87.3199996948242

>  <FSP3>  (54) 
0.526

>  <QED>  (54) 
0.56

$$$$
s_22____859844____16894066
     RDKit          3D

 24 25  0  0  1  0  0  0  0  0999 V2000
  -12.7973   13.2057   65.2131 C   0  0  0  0  0  0  0  0  0  0  0  0
  -12.6868   12.1043   64.3585 C   0  0  0  0  0  0  0  0  0  0  0  0
  -10.3814   13.5935   65.1515 C   0  0  0  0  0  0  0  0  0  0  0  0
  -11.6576   13.9420   65.6051 C   0  0  0  0  0  0  0  0  0  0  0  0
  -11.4210   11.7808   63.9254 C   0  0  0  0  0  0  0  0  0  0  0  0
  -10.2979   12.5062   64.3118 C   0  0  0  0  0  0  0  0  0  0  0  0
   -9.5967   10.8228   62.9272 C   0  0  0  0  0  0  0  0  0  0  0  0
  -11.5024   14.2940   68.8593 C   0  0  0  0  0  0  0  0  0  0  0  0
  -11.8543   11.4265   70.2657 C   0  0  0  0  0  0  0  0  0  0  0  0
  -12.7177   16.2142   65.9398 C   0  0  0  0  0  0  0  0  0  0  0  0
  -14.5965   14.2792   72.0589 C   0  0  0  0  0  0  0  0  0  0  0  0
  -13.1973   15.9067   73.3449 C   0  0  0  0  0  0  0  0  0  0  0  0
  -12.4151   15.0446   71.0734 C   0  0  0  0  0  0  0  0  0  0  0  0
  -11.8227   15.1273   66.5316 C   0  0  1  0  0  0  0  0  0  0  0  0
  -12.3023   13.8739   70.0885 C   0  0  2  0  0  0  0  0  0  0  0  0
  -13.1659   14.7200   72.3809 C   0  0  0  0  0  0  0  0  0  0  0  0
  -11.0101   10.7498   63.0802 N   0  0  0  0  0  0  0  0  0  0  0  0
   -9.1762   11.9344   63.7112 N   0  0  0  0  0  0  0  0  0  0  0  0
  -11.0817   10.5256   70.9765 N   0  0  0  0  0  0  0  0  0  0  0  0
  -12.3235   14.7213   67.8250 N   0  0  0  0  0  0  0  0  0  0  0  0
  -11.6285   12.7395   70.6653 N   0  0  0  0  0  0  0  0  0  0  0  0
   -8.8889   10.0827   62.2594 O   0  0  0  0  0  0  0  0  0  0  0  0
  -10.2774   14.2122   68.7980 O   0  0  0  0  0  0  0  0  0  0  0  0
  -12.6424   11.0809   69.3871 O   0  0  0  0  0  0  0  0  0  0  0  0
  1  2  2  0
  1  4  1  0
  2  5  1  0
  3  4  2  0
  3  6  1  0
  4 14  1  0
  5  6  2  0
  5 17  1  0
  6 18  1  0
  7 17  1  0
  7 18  1  0
  7 22  2  0
  8 15  1  0
  8 20  1  0
  8 23  2  0
  9 19  1  0
  9 21  1  0
  9 24  2  0
 14 10  1  6
 11 16  1  0
 12 16  1  0
 15 13  1  1
 13 16  1  0
 14 20  1  0
 15 21  1  0
M  END
>  <idnumber>  (55) 
s_22____859844____16894066

>  <Chemgauss4>  (55) 
-12.1913805007935

>  <Hetero-Bemis-Murcko>  (55) 
c1[nH]c2ccccc2[nH]1

>  <MW>  (55) 
333.392

>  <HBD>  (55) 
5

>  <HBA>  (55) 
3

>  <RotBonds>  (55) 
6

>  <XLogP>  (55) 
0.933999598026276

>  <sLogP>  (55) 
1.116

>  <TPSA>  (55) 
132.869995117188

>  <FSP3>  (55) 
0.438

>  <QED>  (55) 
0.542

$$$$
s_276492____16888036____14706834
     RDKit          3D

 21 24  0  0  1  0  0  0  0  0999 V2000
  -12.1073   14.3387   69.6454 C   0  0  0  0  0  0  0  0  0  0  0  0
  -11.8658   12.2891   63.7071 C   0  0  0  0  0  0  0  0  0  0  0  0
  -12.5173   13.1506   64.7899 C   0  0  0  0  0  0  0  0  0  0  0  0
   -9.4745   13.4556   67.2291 C   0  0  0  0  0  0  0  0  0  0  0  0
  -12.6674   13.9437   73.0005 C   0  0  0  0  0  0  0  0  0  0  0  0
  -11.4987   16.1073   72.5143 C   0  0  0  0  0  0  0  0  0  0  0  0
  -10.2960   13.0945   68.4631 C   0  0  0  0  0  0  0  0  0  0  0  0
  -12.3593   13.9269   67.2071 C   0  0  0  0  0  0  0  0  0  0  0  0
  -13.5365   15.4399   71.1078 C   0  0  0  0  0  0  0  0  0  0  0  0
  -10.3667   12.5414   63.5731 C   0  0  0  0  0  0  0  0  0  0  0  0
  -13.3156   14.6411   74.1908 C   0  0  0  0  0  0  0  0  0  0  0  0
  -12.2113   16.6859   73.7312 C   0  0  0  0  0  0  0  0  0  0  0  0
  -11.7702   13.0262   66.1197 C   0  0  2  0  0  0  0  0  0  0  0  0
  -10.2861   13.3681   65.9277 C   0  0  2  0  0  0  0  0  0  0  0  0
  -12.2856   14.9417   71.8974 C   0  0  0  0  0  0  0  0  0  0  0  0
   -9.5157   10.9820   65.3505 C   0  0  0  0  0  0  0  0  0  0  0  0
  -11.4565   14.2642   70.8756 N   0  0  0  0  0  0  0  0  0  0  0  0
  -11.5947   13.7961   68.4649 N   0  0  0  0  0  0  0  0  0  0  0  0
  -13.3242   15.0128   69.7210 N   0  0  0  0  0  0  0  0  0  0  0  0
   -9.6685   12.4191   64.9152 N   0  0  1  0  0  0  0  0  0  0  0  0
  -12.4653   15.6684   74.6988 O   0  0  0  0  0  0  0  0  0  0  0  0
  1 17  1  0
  1 18  1  0
  1 19  2  0
  2  3  1  0
  2 10  1  0
 13  3  1  6
  4  7  1  0
 14  4  1  1
  5 11  1  0
  5 15  1  0
  6 12  1  0
  6 15  1  0
  7 18  1  0
  8 13  1  0
  8 18  1  0
  9 15  1  0
  9 19  1  0
 10 20  1  0
 11 21  1  0
 12 21  1  0
 13 14  1  0
 14 20  1  0
 15 17  1  0
 20 16  1  1
M  CHG  2  19   1  20   1
M  END
>  <idnumber>  (56) 
s_276492____16888036____14706834

>  <Chemgauss4>  (56) 
-12.2532787322998

>  <Hetero-Bemis-Murcko>  (56) 
C1CC2CN(CCC2[NH2+]C1)C3=[NH+]CC4(N3)CCOCC4

>  <MW>  (56) 
292.427

>  <HBD>  (56) 
1

>  <HBA>  (56) 
5

>  <RotBonds>  (56) 
0

>  <XLogP>  (56) 
0.497000008821487

>  <sLogP>  (56) 
0.911

>  <TPSA>  (56) 
42.9099998474121

>  <FSP3>  (56) 
0.938

>  <QED>  (56) 
0.72

$$$$
Z1389063543
     RDKit          3D

 22 24  0  0  0  0  0  0  0  0999 V2000
  -10.9642   11.3920   66.2744 C   0  0  0  0  0  0  0  0  0  0  0  0
  -10.5494   10.7735   65.0950 C   0  0  0  0  0  0  0  0  0  0  0  0
  -14.2650   15.4566   71.8319 C   0  0  0  0  0  0  0  0  0  0  0  0
  -11.7382   14.9362   73.0290 C   0  0  0  0  0  0  0  0  0  0  0  0
  -11.9002   12.4253   66.2283 C   0  0  0  0  0  0  0  0  0  0  0  0
  -13.2583   14.7951   71.1086 C   0  0  0  0  0  0  0  0  0  0  0  0
  -12.0311   14.5535   71.7196 C   0  0  0  0  0  0  0  0  0  0  0  0
  -11.0703   11.1884   63.8694 C   0  0  0  0  0  0  0  0  0  0  0  0
  -12.4211   12.8402   65.0027 C   0  0  0  0  0  0  0  0  0  0  0  0
  -12.0062   12.2218   63.8232 C   0  0  0  0  0  0  0  0  0  0  0  0
  -13.9934   15.8502   73.1483 C   0  0  0  0  0  0  0  0  0  0  0  0
  -12.7516   15.5936   73.7343 C   0  0  0  0  0  0  0  0  0  0  0  0
  -12.0755   13.7855   69.6453 C   0  0  0  0  0  0  0  0  0  0  0  0
  -12.3234   13.0634   67.4863 C   0  0  0  0  0  0  0  0  0  0  0  0
  -13.2673   14.3109   69.8206 N   0  0  0  0  0  0  0  0  0  0  0  0
  -11.5592   13.1742   68.5561 N   0  0  0  0  0  0  0  0  0  0  0  0
  -11.2944   13.9067   70.7607 N   0  0  0  0  0  0  0  0  0  0  0  0
  -10.6565   10.5759   62.7251 O   0  0  0  0  0  0  0  0  0  0  0  0
  -13.3367   13.8502   64.9508 O   0  0  0  0  0  0  0  0  0  0  0  0
  -12.5146   12.6263   62.6244 O   0  0  0  0  0  0  0  0  0  0  0  0
  -14.9401   16.4822   73.8559 F   0  0  0  0  0  0  0  0  0  0  0  0
  -12.5261   15.9846   74.9964 F   0  0  0  0  0  0  0  0  0  0  0  0
  1  2  2  0
  1  5  1  0
  2  8  1  0
  3  6  2  0
  3 11  1  0
  4  7  2  0
  4 12  1  0
  5  9  2  0
  5 14  1  0
  6  7  1  0
  6 15  1  0
  7 17  1  0
  8 10  2  0
  8 18  1  0
  9 10  1  0
  9 19  1  0
 10 20  1  0
 11 12  2  0
 11 21  1  0
 12 22  1  0
 13 15  2  0
 13 16  1  0
 13 17  1  0
 14 16  2  0
M  END
>  <idnumber>  (57) 
Z1389063543

>  <Chemgauss4>  (57) 
-12.1515512466431

>  <Hetero-Bemis-Murcko>  (57) 
c1ccc(cc1)C=Nc2[nH]c3ccccc3n2

>  <MW>  (57) 
305.24

>  <HBD>  (57) 
4

>  <HBA>  (57) 
5

>  <RotBonds>  (57) 
2

>  <XLogP>  (57) 
1.46300005912781

>  <sLogP>  (57) 
2.709

>  <TPSA>  (57) 
101.729995727539

>  <FSP3>  (57) 
0.0

>  <QED>  (57) 
0.432

$$$$
Z2455277268
     RDKit          3D

 24 26  0  0  1  0  0  0  0  0999 V2000
   -9.6576   13.8846   65.6042 C   0  0  0  0  0  0  0  0  0  0  0  0
  -10.2244   12.7405   64.9897 C   0  0  0  0  0  0  0  0  0  0  0  0
  -11.4895   12.9737   64.4941 C   0  0  0  0  0  0  0  0  0  0  0  0
  -10.5239   14.9589   65.5515 C   0  0  0  0  0  0  0  0  0  0  0  0
   -9.6680   11.4361   64.8297 C   0  0  0  0  0  0  0  0  0  0  0  0
  -10.3812   10.4808   64.2084 C   0  0  0  0  0  0  0  0  0  0  0  0
  -12.2935   11.9703   63.8173 C   0  0  0  0  0  0  0  0  0  0  0  0
  -10.3302   16.3236   66.0667 C   0  0  0  0  0  0  0  0  0  0  0  0
  -12.4010   15.4251   73.8056 C   0  0  0  0  0  0  0  0  0  0  0  0
  -13.1931   14.3226   73.1065 C   0  0  0  0  0  0  0  0  0  0  0  0
  -11.8380   16.4368   72.8100 C   0  0  0  0  0  0  0  0  0  0  0  0
  -12.3668   13.6384   72.0193 C   0  0  0  0  0  0  0  0  0  0  0  0
  -11.0100   15.7555   71.7221 C   0  0  0  0  0  0  0  0  0  0  0  0
  -11.8154   14.6598   71.0272 C   0  0  0  0  0  0  0  0  0  0  0  0
  -10.5301   17.9385   67.9177 C   0  0  0  0  0  0  0  0  0  0  0  0
  -11.6481   12.8421   69.3392 C   0  0  0  0  0  0  0  0  0  0  0  0
  -11.3474   15.6376   68.2869 C   0  0  0  0  0  0  0  0  0  0  0  0
  -10.2828   14.9090   69.0851 C   0  0  0  0  0  0  0  0  0  0  0  0
  -11.6495   10.7283   63.7163 N   0  0  0  0  0  0  0  0  0  0  0  0
  -10.7206   16.6128   67.3669 N   0  0  0  0  0  0  0  0  0  0  0  0
  -10.9351   13.9591   70.0548 N   0  0  1  0  0  0  0  0  0  0  0  0
  -13.4222   12.1639   63.3702 O   0  0  0  0  0  0  0  0  0  0  0  0
   -9.8096   17.1281   65.2948 O   0  0  0  0  0  0  0  0  0  0  0  0
  -12.0019   14.5689   64.7646 S   0  0  0  0  0  0  0  0  0  0  0  0
  1  2  1  0
  1  4  2  0
  2  3  2  0
  2  5  1  0
  3  7  1  0
  3 24  1  0
  4  8  1  0
  4 24  1  0
  5  6  2  0
  6 19  1  0
  7 19  1  0
  7 22  2  0
  8 20  1  0
  8 23  2  0
  9 10  1  0
  9 11  1  0
 10 12  1  0
 11 13  1  0
 12 14  1  0
 13 14  1  0
 14 21  1  0
 15 20  1  0
 21 16  1  6
 17 18  1  0
 17 20  1  0
 18 21  1  0
M  CHG  1  21   1
M  END
>  <idnumber>  (58) 
Z2455277268

>  <Chemgauss4>  (58) 
-12.2377624511719

>  <Hetero-Bemis-Murcko>  (58) 
c1c2c(cc[nH]1)cc(s2)CNCC[NH2+]C3CCCCC3

>  <MW>  (58) 
347.484

>  <HBD>  (58) 
1

>  <HBA>  (58) 
4

>  <RotBonds>  (58) 
5

>  <XLogP>  (58) 
2.73300004005432

>  <sLogP>  (58) 
2.926

>  <TPSA>  (58) 
57.6100006103516

>  <FSP3>  (58) 
0.556

>  <QED>  (58) 
0.905

$$$$
Z2861532548
     RDKit          3D

 24 24  0  0  1  0  0  0  0  0999 V2000
  -12.5324   15.8570   74.3958 C   0  0  0  0  0  0  0  0  0  0  0  0
  -15.3773   14.7407   72.4439 C   0  0  0  0  0  0  0  0  0  0  0  0
  -11.7266   15.3458   73.4587 C   0  0  0  0  0  0  0  0  0  0  0  0
  -14.5460   14.4462   71.4384 C   0  0  0  0  0  0  0  0  0  0  0  0
  -10.8740   10.1083   69.5712 C   0  0  0  0  0  0  0  0  0  0  0  0
  -11.7564   11.0876   68.8900 C   0  0  0  0  0  0  0  0  0  0  0  0
  -11.7675    7.9326   72.4421 C   0  0  0  0  0  0  0  0  0  0  0  0
  -12.7925    9.6567   71.1499 C   0  0  0  0  0  0  0  0  0  0  0  0
  -13.1037    8.3428   71.8413 C   0  0  2  0  0  0  0  0  0  0  0  0
  -10.7627    8.3610   71.3610 C   0  0  2  0  0  0  0  0  0  0  0  0
   -9.4249    8.7547   71.9759 C   0  0  0  0  0  0  0  0  0  0  0  0
   -9.5467   14.5487   69.3743 C   0  0  0  0  0  0  0  0  0  0  0  0
  -10.8841   15.9939   67.8266 C   0  0  0  0  0  0  0  0  0  0  0  0
  -11.8353   15.6622   72.0034 C   0  0  0  0  0  0  0  0  0  0  0  0
  -13.2792   13.6732   71.6038 C   0  0  0  0  0  0  0  0  0  0  0  0
  -12.4079   13.4737   68.9283 C   0  0  0  0  0  0  0  0  0  0  0  0
  -10.7867   15.4397   69.2526 C   0  0  0  0  0  0  0  0  0  0  0  0
  -12.1031   14.7609   69.6974 C   0  0  2  0  0  0  0  0  0  0  0  0
  -11.4315    9.4599   70.6540 N   0  0  0  0  0  0  0  0  0  0  0  0
  -11.6475   12.3506   69.4278 N   0  0  0  0  0  0  0  0  0  0  0  0
  -14.1316    8.5123   72.8816 N   0  0  0  0  0  0  0  0  0  0  0  0
  -12.0636   14.4397   71.1548 N   0  0  0  0  0  0  0  0  0  0  0  0
   -9.7473    9.9860   69.1118 O   0  0  0  0  0  0  0  0  0  0  0  0
  -12.4679   10.7337   67.9625 O   0  0  0  0  0  0  0  0  0  0  0  0
  1  3  2  0
  2  4  2  0
  3 14  1  0
  4 15  1  0
  5  6  1  0
  5 19  1  0
  5 23  2  0
  6 20  1  0
  6 24  2  0
  7  9  1  0
  7 10  1  0
  8  9  1  0
  8 19  1  0
  9 21  1  1
 10 11  1  1
 10 19  1  0
 12 17  1  0
 13 17  1  0
 14 22  1  0
 15 22  1  0
 18 16  1  6
 16 20  1  0
 17 18  1  0
 18 22  1  0
M  CHG  2  21   1  22   1
M  END
>  <idnumber>  (59) 
Z2861532548

>  <Chemgauss4>  (59) 
-12.1842575073242

>  <Hetero-Bemis-Murcko>  (59) 
C1CCNC1

>  <MW>  (59) 
336.48

>  <HBD>  (59) 
2

>  <HBA>  (59) 
4

>  <RotBonds>  (59) 
8

>  <XLogP>  (59) 
1.3219997882843

>  <sLogP>  (59) 
0.749

>  <TPSA>  (59) 
81.4900054931641

>  <FSP3>  (59) 
0.667

>  <QED>  (59) 
0.506

$$$$
Z2003005387
     RDKit          3D

 24 25  0  0  1  0  0  0  0  0999 V2000
  -14.2445   14.6708   72.3200 C   0  0  0  0  0  0  0  0  0  0  0  0
  -13.5660   15.7702   72.8458 C   0  0  0  0  0  0  0  0  0  0  0  0
  -13.7967   14.0729   71.1420 C   0  0  0  0  0  0  0  0  0  0  0  0
  -12.4397   16.2719   72.1935 C   0  0  0  0  0  0  0  0  0  0  0  0
  -12.6704   14.5746   70.4897 C   0  0  0  0  0  0  0  0  0  0  0  0
  -11.9919   15.6741   71.0155 C   0  0  0  0  0  0  0  0  0  0  0  0
  -13.3753    8.9860   72.1761 C   0  0  0  0  0  0  0  0  0  0  0  0
  -11.9746   11.4648   68.9337 C   0  0  0  0  0  0  0  0  0  0  0  0
  -12.6216    9.9324   71.2808 C   0  0  0  0  0  0  0  0  0  0  0  0
  -12.1812    7.0604   71.1167 C   0  0  0  0  0  0  0  0  0  0  0  0
  -11.1279    8.0131   70.5376 C   0  0  0  0  0  0  0  0  0  0  0  0
  -10.0265    8.3305   71.5592 C   0  0  0  0  0  0  0  0  0  0  0  0
  -10.5114    7.3575   69.2914 C   0  0  0  0  0  0  0  0  0  0  0  0
  -10.4524   17.6110   66.9438 C   0  0  0  0  0  0  0  0  0  0  0  0
  -12.2060   13.9143   69.2238 C   0  0  0  0  0  0  0  0  0  0  0  0
  -10.7841   16.2293   70.3345 C   0  0  0  0  0  0  0  0  0  0  0  0
  -11.1035   10.3093   69.3579 C   0  0  0  0  0  0  0  0  0  0  0  0
  -10.0165   17.1853   68.3296 C   0  0  0  0  0  0  0  0  0  0  0  0
  -13.0278    7.6597   72.1252 N   0  0  0  0  0  0  0  0  0  0  0  0
  -11.5374   12.6613   69.4820 N   0  0  0  0  0  0  0  0  0  0  0  0
  -11.8907    9.2777   70.1298 N   0  0  2  0  0  0  0  0  0  0  0  0
  -14.2167    9.4159   72.9680 O   0  0  0  0  0  0  0  0  0  0  0  0
  -12.9459   11.3403   68.1925 O   0  0  0  0  0  0  0  0  0  0  0  0
  -11.1350   16.6476   69.0219 O   0  0  0  0  0  0  0  0  0  0  0  0
  1  2  2  0
  1  3  1  0
  2  4  1  0
  3  5  2  0
  4  6  2  0
  5  6  1  0
  5 15  1  0
  6 16  1  0
  7  9  1  0
  7 19  1  0
  7 22  2  0
  8 17  1  0
  8 20  1  0
  8 23  2  0
  9 21  1  0
 10 11  1  0
 10 19  1  0
 11 12  1  0
 11 13  1  0
 11 21  1  0
 14 18  1  0
 15 20  1  0
 16 24  1  0
 21 17  1  1
 18 24  1  0
M  CHG  1  21   1
M  END
>  <idnumber>  (60) 
Z2003005387

>  <Chemgauss4>  (60) 
-12.4343776702881

>  <Hetero-Bemis-Murcko>  (60) 
c1ccc(cc1)CNCC[NH+]2CCNCC2

>  <MW>  (60) 
333.432

>  <HBD>  (60) 
2

>  <HBA>  (60) 
4

>  <RotBonds>  (60) 
7

>  <XLogP>  (60) 
1.03299975395203

>  <sLogP>  (60) 
1.05

>  <TPSA>  (60) 
71.8699951171875

>  <FSP3>  (60) 
0.556

>  <QED>  (60) 
0.782

$$$$
Z3380026946
     RDKit          3D

 20 20  0  0  1  0  0  0  0  0999 V2000
  -13.0950   14.2906   72.0361 C   0  0  0  0  0  0  0  0  0  0  0  0
  -13.0636   14.6857   73.3734 C   0  0  0  0  0  0  0  0  0  0  0  0
  -11.7622   16.6293   72.7686 C   0  0  0  0  0  0  0  0  0  0  0  0
  -12.4600   15.0648   71.0650 C   0  0  0  0  0  0  0  0  0  0  0  0
  -12.3973   15.8551   73.7397 C   0  0  0  0  0  0  0  0  0  0  0  0
  -11.7936   16.2342   71.4313 C   0  0  0  0  0  0  0  0  0  0  0  0
  -11.6811   10.3388   70.7481 C   0  0  0  0  0  0  0  0  0  0  0  0
  -12.6157    9.3960   70.9405 C   0  0  0  0  0  0  0  0  0  0  0  0
  -11.8830   11.3960   69.7169 C   0  0  0  0  0  0  0  0  0  0  0  0
  -11.2497    8.3347   72.7296 C   0  0  0  0  0  0  0  0  0  0  0  0
  -12.7185    6.8507   71.3396 C   0  0  0  0  0  0  0  0  0  0  0  0
  -11.2916   13.7653   69.2378 C   0  0  0  0  0  0  0  0  0  0  0  0
  -12.4960   14.6332   69.6156 C   0  0  2  0  0  0  0  0  0  0  0  0
  -12.5649    8.2557   71.9414 C   0  0  0  0  0  0  0  0  0  0  0  0
  -11.2529   12.5792   70.0638 N   0  0  0  0  0  0  0  0  0  0  0  0
  -12.5565   15.8001   68.6785 N   0  0  0  0  0  0  0  0  0  0  0  0
  -13.6771    8.4024   72.9487 N   0  0  0  0  0  0  0  0  0  0  0  0
  -12.5355   11.2059   68.6957 O   0  0  0  0  0  0  0  0  0  0  0  0
  -12.3678   16.2348   75.0238 F   0  0  0  0  0  0  0  0  0  0  0  0
  -11.1802   16.9845   70.5053 F   0  0  0  0  0  0  0  0  0  0  0  0
  1  2  2  0
  1  4  1  0
  2  5  1  0
  3  5  2  0
  3  6  1  0
  4  6  2  0
  4 13  1  0
  5 19  1  0
  6 20  1  0
  7  8  2  0
  7  9  1  0
  8 14  1  0
  9 15  1  0
  9 18  2  0
 10 14  1  0
 11 14  1  0
 12 13  1  0
 12 15  1  0
 13 16  1  6
 14 17  1  0
M  CHG  2  16   1  17   1
M  END
>  <idnumber>  (61) 
Z3380026946

>  <Chemgauss4>  (61) 
-12.2249164581299

>  <Hetero-Bemis-Murcko>  (61) 
c1ccccc1

>  <MW>  (61) 
283.322

>  <HBD>  (61) 
3

>  <HBA>  (61) 
3

>  <RotBonds>  (61) 
5

>  <XLogP>  (61) 
1.8919997215271

>  <sLogP>  (61) 
1.374

>  <TPSA>  (61) 
84.379997253418

>  <FSP3>  (61) 
0.357

>  <QED>  (61) 
0.714

$$$$
Z2788974940
     RDKit          3D

 20 22  0  0  0  0  0  0  0  0999 V2000
   -9.8376   16.7685   66.1911 C   0  0  0  0  0  0  0  0  0  0  0  0
  -11.2723   15.3035   65.9170 C   0  0  0  0  0  0  0  0  0  0  0  0
  -12.0248   13.9293   69.4066 C   0  0  0  0  0  0  0  0  0  0  0  0
  -12.5234   15.2844   73.4773 C   0  0  0  0  0  0  0  0  0  0  0  0
  -13.5885   14.3620   72.8919 C   0  0  0  0  0  0  0  0  0  0  0  0
  -12.0196   16.2869   72.4434 C   0  0  0  0  0  0  0  0  0  0  0  0
   -8.5174   19.4036   68.2563 C   0  0  0  0  0  0  0  0  0  0  0  0
   -9.1302   19.2981   66.8469 C   0  0  0  0  0  0  0  0  0  0  0  0
   -8.9258   17.9318   68.4589 C   0  0  0  0  0  0  0  0  0  0  0  0
  -13.0942   13.6611   71.6293 C   0  0  0  0  0  0  0  0  0  0  0  0
  -11.5219   15.5906   71.1795 C   0  0  0  0  0  0  0  0  0  0  0  0
   -8.8418   17.7677   66.9112 C   0  0  0  0  0  0  0  0  0  0  0  0
  -12.5853   14.6618   70.5894 C   0  0  0  0  0  0  0  0  0  0  0  0
  -12.3151   14.2270   65.9893 C   0  0  0  0  0  0  0  0  0  0  0  0
  -10.6446   15.9171   66.8881 N   0  0  0  0  0  0  0  0  0  0  0  0
   -9.9400   16.7069   64.8601 N   0  0  0  0  0  0  0  0  0  0  0  0
  -10.9860   13.1341   69.6272 N   0  0  0  0  0  0  0  0  0  0  0  0
  -12.6191   14.1300   68.2387 N   0  0  0  0  0  0  0  0  0  0  0  0
  -10.9111   15.7151   64.6734 O   0  0  0  0  0  0  0  0  0  0  0  0
  -12.0956   13.4465   67.1554 O   0  0  0  0  0  0  0  0  0  0  0  0
  1 12  1  0
  1 15  1  0
  1 16  2  0
  2 14  1  0
  2 15  2  0
  2 19  1  0
  3 13  1  0
  3 17  1  0
  3 18  2  0
  4  5  1  0
  4  6  1  0
  5 10  1  0
  6 11  1  0
  7  8  1  0
  7  9  1  0
  8 12  1  0
  9 12  1  0
 10 13  1  0
 11 13  1  0
 14 20  1  0
 16 19  1  0
 18 20  1  0
M  CHG  1  18   1
M  END
>  <idnumber>  (62) 
Z2788974940

>  <Chemgauss4>  (62) 
-12.9081983566284

>  <Hetero-Bemis-Murcko>  (62) 
C1CCC(CC1)C=[NH+]OCc2nc(no2)C3CCC3

>  <MW>  (62) 
278.356

>  <HBD>  (62) 
1

>  <HBA>  (62) 
5

>  <RotBonds>  (62) 
5

>  <XLogP>  (62) 
3.21300005912781

>  <sLogP>  (62) 
2.706

>  <TPSA>  (62) 
88.1399993896484

>  <FSP3>  (62) 
0.786

>  <QED>  (62) 
0.508

$$$$
Z1522061327
     RDKit          3D

 18 19  0  0  1  0  0  0  0  0999 V2000
  -13.8725   14.9716   71.2027 C   0  0  0  0  0  0  0  0  0  0  0  0
  -13.1222    9.8291   71.8456 C   0  0  0  0  0  0  0  0  0  0  0  0
  -12.1717    7.8509   71.9823 C   0  0  0  0  0  0  0  0  0  0  0  0
  -14.1643   14.9720   72.5490 C   0  0  0  0  0  0  0  0  0  0  0  0
  -11.8225   15.5837   72.1112 C   0  0  0  0  0  0  0  0  0  0  0  0
  -12.5159   15.3257   70.9490 C   0  0  0  0  0  0  0  0  0  0  0  0
  -12.0957    9.0380   71.2956 C   0  0  0  0  0  0  0  0  0  0  0  0
  -11.7404   11.6779   69.3704 C   0  0  0  0  0  0  0  0  0  0  0  0
   -9.7848    8.6898   70.3310 C   0  0  0  0  0  0  0  0  0  0  0  0
  -11.9120   15.4089   69.5686 C   0  0  0  0  0  0  0  0  0  0  0  0
  -12.0009   14.0931   68.7994 C   0  0  0  0  0  0  0  0  0  0  0  0
  -11.1248    9.4100   70.1957 C   0  0  2  0  0  0  0  0  0  0  0  0
  -13.8006    9.1977   72.8074 N   0  0  0  0  0  0  0  0  0  0  0  0
  -13.1993    7.9973   72.8671 N   0  0  0  0  0  0  0  0  0  0  0  0
  -11.3379   13.0061   69.4820 N   0  0  0  0  0  0  0  0  0  0  0  0
  -10.9293   10.8392   70.1305 N   0  0  0  0  0  0  0  0  0  0  0  0
  -12.6893   11.2931   68.6883 O   0  0  0  0  0  0  0  0  0  0  0  0
  -12.8060   15.3983   73.5006 S   0  0  0  0  0  0  0  0  0  0  0  0
  1  4  2  0
  1  6  1  0
  2  7  1  0
  2 13  2  0
  3  7  2  0
  3 14  1  0
  4 18  1  0
  5  6  2  0
  5 18  1  0
  6 10  1  0
  7 12  1  0
  8 15  1  0
  8 16  1  0
  8 17  2  0
 12  9  1  1
 10 11  1  0
 11 15  1  0
 12 16  1  0
 13 14  1  0
M  END
>  <idnumber>  (63) 
Z1522061327

>  <Chemgauss4>  (63) 
-12.2199487686157

>  <Hetero-Bemis-Murcko>  (63) 
c1cscc1CCNCNCc2c[nH]nc2

>  <MW>  (63) 
264.354

>  <HBD>  (63) 
3

>  <HBA>  (63) 
3

>  <RotBonds>  (63) 
5

>  <XLogP>  (63) 
1.6599999666214

>  <sLogP>  (63) 
2.074

>  <TPSA>  (63) 
69.8099975585938

>  <FSP3>  (63) 
0.333

>  <QED>  (63) 
0.773

$$$$
Z1730074675
     RDKit          3D

 30 33  0  0  1  0  0  0  0  0999 V2000
  -13.0279   16.0455   73.1322 C   0  0  0  0  0  0  0  0  0  0  0  0
  -13.9755   15.1486   72.6391 C   0  0  0  0  0  0  0  0  0  0  0  0
  -11.7867   16.1627   72.5066 C   0  0  0  0  0  0  0  0  0  0  0  0
  -13.6819   14.3687   71.5205 C   0  0  0  0  0  0  0  0  0  0  0  0
  -11.4931   15.3828   71.3880 C   0  0  0  0  0  0  0  0  0  0  0  0
  -11.0464    9.5842   71.7003 C   0  0  0  0  0  0  0  0  0  0  0  0
  -10.0159    5.9164   71.8425 C   0  0  0  0  0  0  0  0  0  0  0  0
  -11.6173    6.4062   70.0818 C   0  0  0  0  0  0  0  0  0  0  0  0
  -10.8131    8.1870   71.5650 C   0  0  0  0  0  0  0  0  0  0  0  0
  -12.4407   14.4858   70.8949 C   0  0  0  0  0  0  0  0  0  0  0  0
  -10.8095    5.5004   70.7752 C   0  0  0  0  0  0  0  0  0  0  0  0
  -10.0069    7.2556   72.2491 C   0  0  0  0  0  0  0  0  0  0  0  0
  -11.5981    7.7417   70.4993 C   0  0  0  0  0  0  0  0  0  0  0  0
  -11.9514    9.9533   70.7320 C   0  0  0  0  0  0  0  0  0  0  0  0
  -10.2529   13.8055   65.1422 C   0  0  0  0  0  0  0  0  0  0  0  0
   -8.8206   13.2717   67.1532 C   0  0  0  0  0  0  0  0  0  0  0  0
  -10.2797   12.3252   64.7788 C   0  0  0  0  0  0  0  0  0  0  0  0
   -8.8678   11.7946   66.7813 C   0  0  0  0  0  0  0  0  0  0  0  0
  -10.0336   14.0485   66.6375 C   0  0  2  0  0  0  0  0  0  0  0  0
  -10.7983    4.0652   70.3630 C   0  0  0  0  0  0  0  0  0  0  0  0
   -9.1362    7.6447   73.4016 C   0  0  0  0  0  0  0  0  0  0  0  0
  -12.4152   14.1708   66.6931 C   0  0  0  0  0  0  0  0  0  0  0  0
   -8.9441   10.2217   64.8487 C   0  0  0  0  0  0  0  0  0  0  0  0
  -12.5517   11.2903   70.4109 C   0  0  0  0  0  0  0  0  0  0  0  0
  -11.1472   14.3370   68.7271 C   0  0  0  0  0  0  0  0  0  0  0  0
  -12.1215   13.6403   69.6819 C   0  0  1  0  0  0  0  0  0  0  0  0
  -12.2785    8.8352   70.0128 N   0  0  0  0  0  0  0  0  0  0  0  0
  -11.2171   13.7263   67.4015 N   0  0  0  0  0  0  0  0  0  0  0  0
   -9.0243   11.6585   65.2861 N   0  0  1  0  0  0  0  0  0  0  0  0
  -11.5386   12.3098   70.0476 N   0  0  0  0  0  0  0  0  0  0  0  0
  1  2  2  0
  1  3  1  0
  2  4  1  0
  3  5  2  0
  4 10  2  0
  5 10  1  0
  6  9  1  0
  6 14  2  0
  7 11  2  0
  7 12  1  0
  8 11  1  0
  8 13  2  0
  9 12  2  0
  9 13  1  0
 10 26  1  0
 11 20  1  0
 12 21  1  0
 13 27  1  0
 14 24  1  0
 14 27  1  0
 15 17  1  0
 15 19  1  0
 16 18  1  0
 16 19  1  0
 17 29  1  0
 18 29  1  0
 19 28  1  1
 22 28  1  0
 29 23  1  1
 24 30  1  0
 26 25  1  6
 25 28  1  0
 26 30  1  0
M  CHG  2  29   1  30   1
M  END
>  <idnumber>  (64) 
Z1730074675

>  <Chemgauss4>  (64) 
-13.4953308105469

>  <Hetero-Bemis-Murcko>  (64) 
c1ccc(cc1)C(CNC2CC[NH2+]CC2)[NH2+]Cc3cc4ccccc4[nH]3

>  <MW>  (64) 
404.602

>  <HBD>  (64) 
2

>  <HBA>  (64) 
3

>  <RotBonds>  (64) 
7

>  <XLogP>  (64) 
4.72299957275391

>  <sLogP>  (64) 
4.642

>  <TPSA>  (64) 
40.0800018310547

>  <FSP3>  (64) 
0.462

>  <QED>  (64) 
0.602

$$$$
Z3641737234
     RDKit          3D

 24 26  0  0  1  0  0  0  0  0999 V2000
  -12.8628   15.4498   73.3340 C   0  0  0  0  0  0  0  0  0  0  0  0
  -11.9190   15.4182   72.3074 C   0  0  0  0  0  0  0  0  0  0  0  0
  -13.0499   10.3934   71.2790 C   0  0  0  0  0  0  0  0  0  0  0  0
  -13.2815    9.3879   72.2221 C   0  0  0  0  0  0  0  0  0  0  0  0
  -14.2237   15.3978   73.0321 C   0  0  0  0  0  0  0  0  0  0  0  0
  -10.4422    7.1744   71.9327 C   0  0  0  0  0  0  0  0  0  0  0  0
  -13.6969   15.2826   70.6771 C   0  0  0  0  0  0  0  0  0  0  0  0
  -11.1543    6.5427   72.9261 C   0  0  0  0  0  0  0  0  0  0  0  0
  -11.1711    8.3345   71.5481 C   0  0  0  0  0  0  0  0  0  0  0  0
  -12.3360   15.3346   70.9790 C   0  0  0  0  0  0  0  0  0  0  0  0
  -11.9074   10.3810   70.4814 C   0  0  0  0  0  0  0  0  0  0  0  0
  -12.3250    8.3726   72.3337 C   0  0  0  0  0  0  0  0  0  0  0  0
  -10.9592    9.3588   70.6041 C   0  0  0  0  0  0  0  0  0  0  0  0
  -14.6407   15.3142   71.7037 C   0  0  0  0  0  0  0  0  0  0  0  0
  -11.4900   16.4906   68.8973 C   0  0  0  0  0  0  0  0  0  0  0  0
   -9.9371    8.6817   68.5663 C   0  0  0  0  0  0  0  0  0  0  0  0
  -11.7077   11.4796   69.4878 C   0  0  0  0  0  0  0  0  0  0  0  0
  -11.3867   13.9329   69.1464 C   0  0  0  0  0  0  0  0  0  0  0  0
  -11.2977   15.2999   69.8516 C   0  0  2  0  0  0  0  0  0  0  0  0
  -12.2885    7.2727   73.1609 N   0  0  0  0  0  0  0  0  0  0  0  0
  -11.6418   12.8296   70.1095 N   0  0  0  0  0  0  0  0  0  0  0  0
   -9.9852   15.4254   70.4166 O   0  0  0  0  0  0  0  0  0  0  0  0
   -9.8411    9.3606   69.8131 O   0  0  0  0  0  0  0  0  0  0  0  0
  -15.9474   15.2646   71.4136 F   0  0  0  0  0  0  0  0  0  0  0  0
  1  2  2  0
  1  5  1  0
  2 10  1  0
  3  4  2  0
  3 11  1  0
  4 12  1  0
  5 14  2  0
  6  8  2  0
  6  9  1  0
  7 10  2  0
  7 14  1  0
  8 20  1  0
  9 12  2  0
  9 13  1  0
 10 19  1  0
 11 13  2  0
 11 17  1  0
 12 20  1  0
 13 23  1  0
 14 24  1  0
 19 15  1  6
 16 23  1  0
 17 21  1  0
 18 19  1  0
 18 21  1  0
 19 22  1  0
M  CHG  1  21   1
M  END
>  <idnumber>  (65) 
Z3641737234

>  <Chemgauss4>  (65) 
-12.294807434082

>  <Hetero-Bemis-Murcko>  (65) 
c1ccc(cc1)CC[NH2+]Cc2ccc3c(c2)cc[nH]3

>  <MW>  (65) 
328.387

>  <HBD>  (65) 
3

>  <HBA>  (65) 
3

>  <RotBonds>  (65) 
6

>  <XLogP>  (65) 
3.02000021934509

>  <sLogP>  (65) 
3.313

>  <TPSA>  (65) 
61.8600006103516

>  <FSP3>  (65) 
0.263

>  <QED>  (65) 
0.651

$$$$
Z1833587873
     RDKit          3D

 23 25  0  0  1  0  0  0  0  0999 V2000
  -13.4346   15.7976   73.1761 C   0  0  0  0  0  0  0  0  0  0  0  0
  -14.2965   15.3651   72.1683 C   0  0  0  0  0  0  0  0  0  0  0  0
  -12.0543   15.6850   73.0093 C   0  0  0  0  0  0  0  0  0  0  0  0
   -9.7506   10.0732   70.5136 C   0  0  0  0  0  0  0  0  0  0  0  0
  -13.7781   14.8199   70.9937 C   0  0  0  0  0  0  0  0  0  0  0  0
  -11.5359   15.1397   71.8347 C   0  0  0  0  0  0  0  0  0  0  0  0
   -9.2632    9.6235   69.2617 C   0  0  0  0  0  0  0  0  0  0  0  0
  -11.1237    9.9692   70.4818 C   0  0  0  0  0  0  0  0  0  0  0  0
  -12.3978   14.7072   70.8269 C   0  0  0  0  0  0  0  0  0  0  0  0
  -10.3533    9.2586   68.5029 C   0  0  0  0  0  0  0  0  0  0  0  0
  -11.8490   14.1296   69.5850 C   0  0  0  0  0  0  0  0  0  0  0  0
  -10.5171    8.7228   67.1400 C   0  0  0  0  0  0  0  0  0  0  0  0
  -10.0928    9.3349   66.0253 C   0  0  0  0  0  0  0  0  0  0  0  0
   -9.4066   10.6429   66.1274 C   0  0  0  0  0  0  0  0  0  0  0  0
  -12.0192   13.6740   67.2168 C   0  0  0  0  0  0  0  0  0  0  0  0
  -10.5062   13.6343   67.3388 C   0  0  2  0  0  0  0  0  0  0  0  0
   -9.8718   12.9574   66.1337 C   0  0  0  0  0  0  0  0  0  0  0  0
  -11.4789    9.4732   69.2546 N   0  0  0  0  0  0  0  0  0  0  0  0
  -12.5344   14.2749   68.4480 N   0  0  0  0  0  0  0  0  0  0  0  0
  -10.6889   13.4713   69.6501 N   0  0  0  0  0  0  0  0  0  0  0  0
   -8.2030   10.8034   66.2539 O   0  0  0  0  0  0  0  0  0  0  0  0
  -10.1502   12.8857   68.5058 O   0  0  0  0  0  0  0  0  0  0  0  0
  -10.3526   11.6264   66.0537 O   0  0  0  0  0  0  0  0  0  0  0  0
  1  2  2  0
  1  3  1  0
  2  5  1  0
  3  6  2  0
  4  7  1  0
  4  8  2  0
  5  9  2  0
  6  9  1  0
  7 10  2  0
  8 18  1  0
  9 11  1  0
 10 12  1  0
 10 18  1  0
 11 19  1  0
 11 20  2  0
 12 13  2  0
 13 14  1  0
 14 21  2  0
 14 23  1  0
 15 16  1  0
 15 19  1  0
 16 17  1  6
 16 22  1  0
 17 23  1  0
 20 22  1  0
M  CHG  1  20   1
M  END
>  <idnumber>  (66) 
Z1833587873

>  <Chemgauss4>  (66) 
-12.4533987045288

>  <Hetero-Bemis-Murcko>  (66) 
c1ccc(cc1)C2=[NH+]OC(CN2)COCC=Cc3ccc[nH]3

>  <MW>  (66) 
311.341

>  <HBD>  (66) 
2

>  <HBA>  (66) 
5

>  <RotBonds>  (66) 
5

>  <XLogP>  (66) 
3.16600036621094

>  <sLogP>  (66) 
1.921

>  <TPSA>  (66) 
77.3199920654297

>  <FSP3>  (66) 
0.176

>  <QED>  (66) 
0.653

$$$$
Z2639057646
     RDKit          3D

 26 29  0  0  1  0  0  0  0  0999 V2000
  -13.6668   14.6413   73.8713 C   0  0  0  0  0  0  0  0  0  0  0  0
  -12.8661   15.7729   73.9787 C   0  0  0  0  0  0  0  0  0  0  0  0
  -13.5719   13.8338   72.7434 C   0  0  0  0  0  0  0  0  0  0  0  0
  -11.9936   16.0511   72.9389 C   0  0  0  0  0  0  0  0  0  0  0  0
  -11.3865   14.5298   65.8576 C   0  0  0  0  0  0  0  0  0  0  0  0
  -10.4116   15.4881   66.1193 C   0  0  0  0  0  0  0  0  0  0  0  0
  -12.6680   14.1989   71.7588 C   0  0  0  0  0  0  0  0  0  0  0  0
  -10.3153   16.4870   65.1604 C   0  0  0  0  0  0  0  0  0  0  0  0
  -12.1318   14.6740   64.7030 C   0  0  0  0  0  0  0  0  0  0  0  0
  -11.8979   13.3580   66.4492 C   0  0  0  0  0  0  0  0  0  0  0  0
  -11.9023   11.6533   68.2980 C   0  0  0  0  0  0  0  0  0  0  0  0
  -11.7136    9.7999   71.3291 C   0  0  0  0  0  0  0  0  0  0  0  0
  -11.1634    9.9069   69.9130 C   0  0  0  0  0  0  0  0  0  0  0  0
  -12.5987   11.0159   71.4757 C   0  0  0  0  0  0  0  0  0  0  0  0
  -11.1554   11.3989   69.5668 C   0  0  2  0  0  0  0  0  0  0  0  0
   -9.5298   15.4691   67.3204 C   0  0  0  0  0  0  0  0  0  0  0  0
   -9.3069   17.5786   65.3221 C   0  0  0  0  0  0  0  0  0  0  0  0
  -12.5392   13.3508   70.5278 C   0  0  0  0  0  0  0  0  0  0  0  0
  -11.8735   15.2905   71.8277 N   0  0  0  0  0  0  0  0  0  0  0  0
  -11.0830   16.5705   64.0421 N   0  0  0  0  0  0  0  0  0  0  0  0
  -12.0101   15.6562   63.7965 N   0  0  0  0  0  0  0  0  0  0  0  0
  -12.8829   12.8035   65.7335 N   0  0  0  0  0  0  0  0  0  0  0  0
  -13.0028   13.6275   64.6759 N   0  0  0  0  0  0  0  0  0  0  0  0
  -11.4407   12.8017   67.6673 N   0  0  0  0  0  0  0  0  0  0  0  0
  -11.7967   12.0760   70.7698 N   0  0  1  0  0  0  0  0  0  0  0  0
  -12.7930   10.8941   67.9304 O   0  0  0  0  0  0  0  0  0  0  0  0
  1  2  2  0
  1  3  1  0
  2  4  1  0
  3  7  2  0
  4 19  2  0
  5  6  2  0
  5  9  1  0
  5 10  1  0
  6  8  1  0
  6 16  1  0
  7 18  1  0
  7 19  1  0
  8 17  1  0
  8 20  2  0
  9 21  2  0
  9 23  1  0
 10 22  2  0
 10 24  1  0
 15 11  1  6
 11 24  1  0
 11 26  2  0
 12 13  1  0
 12 14  1  0
 13 15  1  0
 14 25  1  0
 15 25  1  0
 25 18  1  6
 20 21  1  0
 22 23  1  0
M  CHG  1  25   1
M  END
>  <idnumber>  (67) 
Z2639057646

>  <Chemgauss4>  (67) 
-12.1956539154053

>  <Hetero-Bemis-Murcko>  (67) 
c1ccnc(c1)C[NH+]2CCCC2CNc3c4ccnnc4[nH]n3

>  <MW>  (67) 
351.414

>  <HBD>  (67) 
2

>  <HBA>  (67) 
6

>  <RotBonds>  (67) 
4

>  <XLogP>  (67) 
1.45999991893768

>  <sLogP>  (67) 
1.968

>  <TPSA>  (67) 
100.889999389648

>  <FSP3>  (67) 
0.389

>  <QED>  (67) 
0.745

$$$$
s_276492____16785900____14699334
     RDKit          3D

 25 28  0  0  1  0  0  0  0  0999 V2000
   -8.2530   18.7494   68.1667 C   0  0  0  0  0  0  0  0  0  0  0  0
   -8.2273   19.1920   65.7917 C   0  0  0  0  0  0  0  0  0  0  0  0
   -7.4143   19.8434   68.3797 C   0  0  0  0  0  0  0  0  0  0  0  0
   -7.3886   20.2861   66.0047 C   0  0  0  0  0  0  0  0  0  0  0  0
   -8.6594   18.4236   66.8727 C   0  0  0  0  0  0  0  0  0  0  0  0
   -6.9822   20.6118   67.2987 C   0  0  0  0  0  0  0  0  0  0  0  0
  -10.5826   15.6428   65.6718 C   0  0  0  0  0  0  0  0  0  0  0  0
  -11.0911   15.4935   66.9486 C   0  0  0  0  0  0  0  0  0  0  0  0
   -9.5282   17.2916   66.6522 C   0  0  0  0  0  0  0  0  0  0  0  0
  -12.1658   14.4062   69.8194 C   0  0  0  0  0  0  0  0  0  0  0  0
  -10.9638   14.7544   64.5390 C   0  0  0  0  0  0  0  0  0  0  0  0
  -12.2630   13.9911   64.8475 C   0  0  0  0  0  0  0  0  0  0  0  0
  -12.2485   13.3937   66.2641 C   0  0  0  0  0  0  0  0  0  0  0  0
  -11.8265   14.8211   72.2563 C   0  0  0  0  0  0  0  0  0  0  0  0
  -13.8977   15.6592   71.1063 C   0  0  0  0  0  0  0  0  0  0  0  0
  -12.1066   14.4735   67.3554 C   0  0  1  0  0  0  0  0  0  0  0  0
  -13.3560   14.9420   72.3536 C   0  0  0  0  0  0  0  0  0  0  0  0
  -13.9868   13.5408   72.4683 C   0  0  0  0  0  0  0  0  0  0  0  0
  -13.7266   15.7483   73.6085 C   0  0  0  0  0  0  0  0  0  0  0  0
   -9.6756   16.6678   65.5031 N   0  0  0  0  0  0  0  0  0  0  0  0
  -11.3822   14.2799   70.9643 N   0  0  0  0  0  0  0  0  0  0  0  0
  -13.3803   15.0879   69.8551 N   0  0  0  0  0  0  0  0  0  0  0  0
  -11.7237   13.8567   68.6226 N   0  0  0  0  0  0  0  0  0  0  0  0
   -6.1776   21.6631   67.5033 F   0  0  0  0  0  0  0  0  0  0  0  0
  -10.4525   16.6971   67.9736 S   0  0  0  0  0  0  0  0  0  0  0  0
  1  3  2  0
  1  5  1  0
  2  4  1  0
  2  5  2  0
  3  6  1  0
  4  6  2  0
  5  9  1  0
  6 24  1  0
  7  8  2  0
  7 11  1  0
  7 20  1  0
  8 16  1  0
  8 25  1  0
  9 20  2  0
  9 25  1  0
 10 21  1  0
 10 22  2  0
 10 23  1  0
 11 12  1  0
 12 13  1  0
 13 16  1  0
 14 17  1  0
 14 21  1  0
 15 17  1  0
 15 22  1  0
 16 23  1  1
 17 18  1  0
 17 19  1  0
M  CHG  1  22   1
M  END
>  <idnumber>  (68) 
s_276492____16785900____14699334

>  <Chemgauss4>  (68) 
-12.2381038665771

>  <Hetero-Bemis-Murcko>  (68) 
c1ccc(cc1)c2nc3c(s2)C(CCC3)NC4=[NH+]CCCN4

>  <MW>  (68) 
358.486

>  <HBD>  (68) 
2

>  <HBA>  (68) 
5

>  <RotBonds>  (68) 
2

>  <XLogP>  (68) 
3.5860002040863

>  <sLogP>  (68) 
3.902

>  <TPSA>  (68) 
50.9199981689453

>  <FSP3>  (68) 
0.474

>  <QED>  (68) 
0.856

$$$$
s_240690____15146148____12103644
     RDKit          3D

 24 26  0  0  1  0  0  0  0  0999 V2000
  -10.8917   16.7460   68.0491 C   0  0  0  0  0  0  0  0  0  0  0  0
  -11.0817   16.4583   69.4006 C   0  0  0  0  0  0  0  0  0  0  0  0
  -10.9613    8.7330   71.8828 C   0  0  0  0  0  0  0  0  0  0  0  0
  -10.8725   14.3825   67.5486 C   0  0  0  0  0  0  0  0  0  0  0  0
  -11.2362    7.8085   72.8605 C   0  0  0  0  0  0  0  0  0  0  0  0
  -10.7871   15.7081   67.1230 C   0  0  0  0  0  0  0  0  0  0  0  0
  -11.1671   15.1327   69.8262 C   0  0  0  0  0  0  0  0  0  0  0  0
  -11.0625   14.0947   68.9002 C   0  0  0  0  0  0  0  0  0  0  0  0
  -12.2118    9.3013   71.5742 C   0  0  0  0  0  0  0  0  0  0  0  0
  -10.5899   16.0088   65.7139 C   0  0  0  0  0  0  0  0  0  0  0  0
  -11.6099   11.6602   68.5671 C   0  0  0  0  0  0  0  0  0  0  0  0
  -12.7835   16.5798   72.4634 C   0  0  0  0  0  0  0  0  0  0  0  0
  -12.1846   15.6614   73.4863 C   0  0  0  0  0  0  0  0  0  0  0  0
  -11.4735   15.8961   72.1818 C   0  0  0  0  0  0  0  0  0  0  0  0
  -12.5062   10.3805   70.5598 C   0  0  0  0  0  0  0  0  0  0  0  0
  -11.5389   10.3644   69.3699 C   0  0  1  0  0  0  0  0  0  0  0  0
  -13.2071    8.7812   72.2973 N   0  0  0  0  0  0  0  0  0  0  0  0
  -12.5823    7.8763   73.0698 N   0  0  0  0  0  0  0  0  0  0  0  0
  -10.4918   14.9376   64.8306 N   0  0  0  0  0  0  0  0  0  0  0  0
  -11.1474   12.7429   69.3077 N   0  0  0  0  0  0  0  0  0  0  0  0
  -11.3611   14.8644   71.1998 N   0  0  0  0  0  0  0  0  0  0  0  0
  -11.9172    9.2180   68.4888 N   0  0  0  0  0  0  0  0  0  0  0  0
  -10.4944   17.1805   65.3083 O   0  0  0  0  0  0  0  0  0  0  0  0
  -12.0163   11.6702   67.4085 O   0  0  0  0  0  0  0  0  0  0  0  0
  1  2  2  0
  1  6  1  0
  2  7  1  0
  3  5  2  0
  3  9  1  0
  4  6  2  0
  4  8  1  0
  5 18  1  0
  6 10  1  0
  7  8  2  0
  7 21  1  0
  8 20  1  0
  9 15  1  0
  9 17  2  0
 10 19  1  0
 10 23  2  0
 11 16  1  0
 11 20  1  0
 11 24  2  0
 12 13  1  0
 12 14  1  0
 13 14  1  0
 14 21  1  0
 15 16  1  0
 16 22  1  6
 17 18  1  0
M  CHG  1  22   1
M  END
>  <idnumber>  (69) 
s_240690____15146148____12103644

>  <Chemgauss4>  (69) 
-12.494758605957

>  <Hetero-Bemis-Murcko>  (69) 
c1ccc(c(c1)NCCCc2cc[nH]n2)NC3CC3

>  <MW>  (69) 
328.376

>  <HBD>  (69) 
5

>  <HBA>  (69) 
5

>  <RotBonds>  (69) 
7

>  <XLogP>  (69) 
-0.262000113725662

>  <sLogP>  (69) 
0.591

>  <TPSA>  (69) 
140.539993286133

>  <FSP3>  (69) 
0.312

>  <QED>  (69) 
0.506

$$$$
Z2774066607
     RDKit          3D

 23 25  0  0  1  0  0  0  0  0999 V2000
  -12.2604   12.1702   63.9585 C   0  0  0  0  0  0  0  0  0  0  0  0
  -10.0877   11.8044   64.0047 C   0  0  0  0  0  0  0  0  0  0  0  0
  -11.5698   13.2920   64.3524 C   0  0  0  0  0  0  0  0  0  0  0  0
  -11.2328   15.3254   65.7326 C   0  0  0  0  0  0  0  0  0  0  0  0
  -12.3973   13.5811   71.7078 C   0  0  0  0  0  0  0  0  0  0  0  0
  -11.9089   16.0441   71.4035 C   0  0  0  0  0  0  0  0  0  0  0  0
  -11.2334   16.1606   68.0584 C   0  0  0  0  0  0  0  0  0  0  0  0
  -12.2153   13.9400   67.6230 C   0  0  0  0  0  0  0  0  0  0  0  0
  -13.4680   13.9282   72.7342 C   0  0  0  0  0  0  0  0  0  0  0  0
  -12.9830   16.3761   72.4312 C   0  0  0  0  0  0  0  0  0  0  0  0
  -10.4135   15.6081   69.2134 C   0  0  0  0  0  0  0  0  0  0  0  0
  -12.2040   14.7180   70.7089 C   0  0  1  0  0  0  0  0  0  0  0  0
  -11.4297   13.3163   68.7796 C   0  0  1  0  0  0  0  0  0  0  0  0
  -10.1565   12.6111   68.3128 C   0  0  0  0  0  0  0  0  0  0  0  0
  -12.0590   15.1504   74.4356 C   0  0  0  0  0  0  0  0  0  0  0  0
  -12.1197   14.6395   64.7242 C   0  0  1  0  0  0  0  0  0  0  0  0
  -10.2178   13.0578   64.3788 N   0  0  0  0  0  0  0  0  0  0  0  0
  -11.2976   11.2257   63.7389 N   0  0  0  0  0  0  0  0  0  0  0  0
  -11.5409   15.1218   67.0778 N   0  0  0  0  0  0  0  0  0  0  0  0
  -13.1594   15.2419   73.4130 N   0  0  2  0  0  0  0  0  0  0  0  0
  -11.0706   14.3818   69.8075 N   0  0  1  0  0  0  0  0  0  0  0  0
  -10.2926   16.0183   65.3346 O   0  0  0  0  0  0  0  0  0  0  0  0
  -12.1937   15.4846   63.5929 O   0  0  0  0  0  0  0  0  0  0  0  0
  1  3  2  0
  1 18  1  0
  2 17  2  0
  2 18  1  0
  3 16  1  0
  3 17  1  0
  4 16  1  0
  4 19  1  0
  4 22  2  0
  5  9  1  0
 12  5  1  1
  6 10  1  0
  6 12  1  0
  7 11  1  0
  7 19  1  0
  8 13  1  0
  8 19  1  0
  9 20  1  0
 10 20  1  0
 21 11  1  6
 12 21  1  0
 13 14  1  6
 13 21  1  0
 20 15  1  6
 16 23  1  6
M  CHG  2  20   1  21   1
M  END
>  <idnumber>  (70) 
Z2774066607

>  <Chemgauss4>  (70) 
-12.362133026123

>  <Hetero-Bemis-Murcko>  (70) 
c1c(nc[nH]1)CCN2CC[NH+](CC2)C3CC[NH2+]CC3

>  <MW>  (70) 
321.425

>  <HBD>  (70) 
2

>  <HBA>  (70) 
5

>  <RotBonds>  (70) 
3

>  <XLogP>  (70) 
-0.746000409126282

>  <sLogP>  (70) 
0.07

>  <TPSA>  (70) 
78.1000061035156

>  <FSP3>  (70) 
0.75

>  <QED>  (70) 
0.824

$$$$
Z3496197819
     RDKit          3D

 24 25  0  0  1  0  0  0  0  0999 V2000
  -13.6549   15.7291   73.1746 C   0  0  0  0  0  0  0  0  0  0  0  0
  -14.0949   15.6518   71.8532 C   0  0  0  0  0  0  0  0  0  0  0  0
  -13.0144   14.6377   73.7615 C   0  0  0  0  0  0  0  0  0  0  0  0
  -13.8945   14.4830   71.1187 C   0  0  0  0  0  0  0  0  0  0  0  0
  -12.8141   13.4690   73.0270 C   0  0  0  0  0  0  0  0  0  0  0  0
  -12.6250   14.0966   65.6019 C   0  0  0  0  0  0  0  0  0  0  0  0
  -13.2542   13.3916   71.7056 C   0  0  0  0  0  0  0  0  0  0  0  0
  -11.4207   13.4939   65.8718 C   0  0  0  0  0  0  0  0  0  0  0  0
  -11.3393   12.4389   64.9433 C   0  0  0  0  0  0  0  0  0  0  0  0
  -10.4179   13.8852   66.9277 C   0  0  0  0  0  0  0  0  0  0  0  0
  -10.4776   13.0186   68.1925 C   0  0  0  0  0  0  0  0  0  0  0  0
  -13.2160    9.5718   70.9160 C   0  0  0  0  0  0  0  0  0  0  0  0
  -13.0224   10.8395   71.7602 C   0  0  0  0  0  0  0  0  0  0  0  0
  -11.8280   12.9877   68.9019 C   0  0  0  0  0  0  0  0  0  0  0  0
  -13.1257    8.2859   71.7296 C   0  0  0  0  0  0  0  0  0  0  0  0
  -13.0367   12.1234   70.9095 C   0  0  2  0  0  0  0  0  0  0  0  0
  -10.2495   11.4604   64.7812 C   0  0  0  0  0  0  0  0  0  0  0  0
  -12.4070   12.3724   64.1435 N   0  0  0  0  0  0  0  0  0  0  0  0
  -13.1707   13.3932   64.5687 N   0  0  0  0  0  0  0  0  0  0  0  0
  -14.1961    8.2394   72.7535 N   0  0  0  0  0  0  0  0  0  0  0  0
  -11.7541   12.1677   70.1340 N   0  0  0  0  0  0  0  0  0  0  0  0
   -9.2050   11.6272   65.6569 F   0  0  0  0  0  0  0  0  0  0  0  0
  -10.6335   10.1536   64.9557 F   0  0  0  0  0  0  0  0  0  0  0  0
   -9.6718   11.4923   63.5373 F   0  0  0  0  0  0  0  0  0  0  0  0
  1  2  2  0
  1  3  1  0
  2  4  1  0
  3  5  2  0
  4  7  2  0
  5  7  1  0
  6  8  2  0
  6 19  1  0
  7 16  1  0
  8  9  1  0
  8 10  1  0
  9 17  1  0
  9 18  2  0
 10 11  1  0
 11 14  1  0
 12 13  1  0
 12 15  1  0
 16 13  1  1
 14 21  1  0
 15 20  1  0
 16 21  1  0
 17 22  1  0
 17 23  1  0
 17 24  1  0
 18 19  1  0
M  CHG  2  20   1  21   1
M  END
>  <idnumber>  (71) 
Z3496197819

>  <Chemgauss4>  (71) 
-12.1809024810791

>  <Hetero-Bemis-Murcko>  (71) 
c1ccc(cc1)C[NH2+]CCCc2c[nH]nc2

>  <MW>  (71) 
340.393

>  <HBD>  (71) 
3

>  <HBA>  (71) 
3

>  <RotBonds>  (71) 
9

>  <XLogP>  (71) 
3.6439995765686

>  <sLogP>  (71) 
3.431

>  <TPSA>  (71) 
72.9300003051758

>  <FSP3>  (71) 
0.471

>  <QED>  (71) 
0.613

$$$$
Z2619801267
     RDKit          3D

 24 26  0  0  1  0  0  0  0  0999 V2000
  -10.5772    8.2629   72.4215 C   0  0  0  0  0  0  0  0  0  0  0  0
  -13.6188    9.7782   71.2256 C   0  0  0  0  0  0  0  0  0  0  0  0
   -9.6218    8.9095   71.6531 C   0  0  0  0  0  0  0  0  0  0  0  0
  -14.1237    8.9111   72.1673 C   0  0  0  0  0  0  0  0  0  0  0  0
  -12.2045    9.6292   71.2154 C   0  0  0  0  0  0  0  0  0  0  0  0
  -11.8868    8.6594   72.1676 C   0  0  0  0  0  0  0  0  0  0  0  0
  -11.1627   10.2199   70.4936 C   0  0  0  0  0  0  0  0  0  0  0  0
  -11.3939   11.2603   69.4586 C   0  0  0  0  0  0  0  0  0  0  0  0
  -13.0767   14.5936   70.5563 C   0  0  0  0  0  0  0  0  0  0  0  0
  -11.4500   16.1446   71.6031 C   0  0  0  0  0  0  0  0  0  0  0  0
  -13.7855   14.4803   71.9038 C   0  0  1  0  0  0  0  0  0  0  0  0
  -12.1782   15.9432   72.9271 C   0  0  1  0  0  0  0  0  0  0  0  0
  -13.4551   13.2000   72.6691 C   0  0  0  0  0  0  0  0  0  0  0  0
  -12.1149   17.2107   73.7701 C   0  0  0  0  0  0  0  0  0  0  0  0
  -11.4803   16.0929   68.6447 C   0  0  0  0  0  0  0  0  0  0  0  0
   -9.4029   15.3072   69.8248 C   0  0  0  0  0  0  0  0  0  0  0  0
  -10.9380   13.6044   68.7853 C   0  0  0  0  0  0  0  0  0  0  0  0
  -10.8564   14.9720   69.4799 C   0  0  0  0  0  0  0  0  0  0  0  0
   -9.8777    9.8543   70.7191 N   0  0  0  0  0  0  0  0  0  0  0  0
  -13.0710    8.2405   72.7304 N   0  0  0  0  0  0  0  0  0  0  0  0
  -10.7882   12.4903   69.6831 N   0  0  0  0  0  0  0  0  0  0  0  0
  -11.6146   14.8936   70.7748 N   0  0  0  0  0  0  0  0  0  0  0  0
  -12.1054   10.9978   68.4924 O   0  0  0  0  0  0  0  0  0  0  0  0
  -13.5599   15.6481   72.7008 O   0  0  0  0  0  0  0  0  0  0  0  0
  1  3  2  0
  1  6  1  0
  2  4  2  0
  2  5  1  0
  3 19  1  0
  4 20  1  0
  5  6  2  0
  5  7  1  0
  6 20  1  0
  7  8  1  0
  7 19  2  0
  8 21  1  0
  8 23  2  0
  9 11  1  0
  9 22  1  0
 10 12  1  0
 10 22  1  0
 11 13  1  1
 11 24  1  0
 12 14  1  1
 12 24  1  0
 15 18  1  0
 16 18  1  0
 17 18  1  0
 17 21  1  0
 18 22  1  0
M  CHG  1  22   1
M  END
>  <idnumber>  (72) 
Z2619801267

>  <Chemgauss4>  (72) 
-12.1498413085938

>  <Hetero-Bemis-Murcko>  (72) 
c1c[nH]c2c1c(ncc2)CNCC[NH+]3CCOCC3

>  <MW>  (72) 
330.432

>  <HBD>  (72) 
2

>  <HBA>  (72) 
4

>  <RotBonds>  (72) 
4

>  <XLogP>  (72) 
1.23499989509583

>  <sLogP>  (72) 
2.18

>  <TPSA>  (72) 
71.4499969482422

>  <FSP3>  (72) 
0.556

>  <QED>  (72) 
0.901

$$$$
Z2277274972
     RDKit          3D

 27 30  0  0  1  0  0  0  0  0999 V2000
  -13.0143   14.5271   66.1507 C   0  0  0  0  0  0  0  0  0  0  0  0
  -12.4544   15.1263   67.2776 C   0  0  0  0  0  0  0  0  0  0  0  0
  -10.4579   13.7880   67.0014 C   0  0  0  0  0  0  0  0  0  0  0  0
  -13.5377   11.2794   72.3142 C   0  0  0  0  0  0  0  0  0  0  0  0
  -13.5774   12.6439   72.1699 C   0  0  0  0  0  0  0  0  0  0  0  0
  -11.0072   13.1788   65.8689 C   0  0  0  0  0  0  0  0  0  0  0  0
  -12.2881   13.5587   65.4549 C   0  0  0  0  0  0  0  0  0  0  0  0
  -11.1783   14.7574   67.7028 C   0  0  0  0  0  0  0  0  0  0  0  0
  -12.6574   12.9215   71.1285 C   0  0  0  0  0  0  0  0  0  0  0  0
  -10.7919   11.6549   64.1356 C   0  0  0  0  0  0  0  0  0  0  0  0
  -12.1547   11.9905   63.6126 C   0  0  0  0  0  0  0  0  0  0  0  0
  -14.3512   13.6861   72.8884 C   0  0  0  0  0  0  0  0  0  0  0  0
  -14.3521   15.0079   72.0988 C   0  0  0  0  0  0  0  0  0  0  0  0
  -12.9488   15.3646   71.5722 C   0  0  0  0  0  0  0  0  0  0  0  0
  -12.4029   14.2932   70.6022 C   0  0  1  0  0  0  0  0  0  0  0  0
  -12.4252    8.6033   72.4028 C   0  0  0  0  0  0  0  0  0  0  0  0
  -10.8594    9.3479   70.5589 C   0  0  0  0  0  0  0  0  0  0  0  0
  -12.2672    9.4623   71.1467 C   0  0  0  0  0  0  0  0  0  0  0  0
  -12.0999   11.8127   70.6318 N   0  0  0  0  0  0  0  0  0  0  0  0
  -10.2651   12.2061   65.1786 N   0  0  0  0  0  0  0  0  0  0  0  0
  -12.6449   10.8359   71.3806 N   0  0  0  0  0  0  0  0  0  0  0  0
  -12.8397   12.9480   64.3219 N   0  0  0  0  0  0  0  0  0  0  0  0
  -10.9917   14.4859   70.3746 N   0  0  0  0  0  0  0  0  0  0  0  0
  -12.5437   11.3996   62.6160 O   0  0  0  0  0  0  0  0  0  0  0  0
   -9.0271   15.4407   69.0125 O   0  0  0  0  0  0  0  0  0  0  0  0
  -11.1208   16.8056   69.2918 O   0  0  0  0  0  0  0  0  0  0  0  0
  -10.4705   15.5190   69.1324 S   0  0  0  0  0  0  0  0  0  0  0  0
  1  2  2  0
  1  7  1  0
  2  8  1  0
  3  6  1  0
  3  8  2  0
  4  5  2  0
  4 21  1  0
  5  9  1  0
  5 12  1  0
  6  7  2  0
  6 20  1  0
  7 22  1  0
  8 27  1  0
  9 15  1  0
  9 19  2  0
 10 11  1  0
 10 20  2  0
 11 22  1  0
 11 24  2  0
 12 13  1  0
 13 14  1  0
 14 15  1  0
 15 23  1  1
 16 18  1  0
 17 18  1  0
 18 21  1  0
 19 21  1  0
 23 27  1  0
 25 27  2  0
 26 27  2  0
M  END
>  <idnumber>  (73) 
Z2277274972

>  <Chemgauss4>  (73) 
-12.4546422958374

>  <Hetero-Bemis-Murcko>  (73) 
c1cnc2cc(ccc2[nH]1)[SH4]NC3CCCc4c3n[nH]c4

>  <MW>  (73) 
387.465

>  <HBD>  (73) 
2

>  <HBA>  (73) 
6

>  <RotBonds>  (73) 
4

>  <XLogP>  (73) 
1.68999981880188

>  <sLogP>  (73) 
2.056

>  <TPSA>  (73) 
109.73999786377

>  <FSP3>  (73) 
0.389

>  <QED>  (73) 
0.712

$$$$
Z4113608572
     RDKit          3D

 24 26  0  0  1  0  0  0  0  0999 V2000
  -11.2801   15.9917   70.2018 C   0  0  0  0  0  0  0  0  0  0  0  0
  -11.6332   16.3787   71.4945 C   0  0  0  0  0  0  0  0  0  0  0  0
  -12.9420   14.2395   70.2724 C   0  0  0  0  0  0  0  0  0  0  0  0
  -10.0847    7.6683   72.3587 C   0  0  0  0  0  0  0  0  0  0  0  0
  -10.8763    8.5363   71.5831 C   0  0  0  0  0  0  0  0  0  0  0  0
  -11.9345   14.9221   69.5907 C   0  0  0  0  0  0  0  0  0  0  0  0
  -12.6407   15.6961   72.1762 C   0  0  0  0  0  0  0  0  0  0  0  0
  -13.2951   14.6265   71.5651 C   0  0  0  0  0  0  0  0  0  0  0  0
  -12.1481    8.3729   72.0836 C   0  0  0  0  0  0  0  0  0  0  0  0
  -11.5578   11.3367   69.0746 C   0  0  0  0  0  0  0  0  0  0  0  0
  -13.3755    9.0873   71.6581 C   0  0  0  0  0  0  0  0  0  0  0  0
  -13.1114    9.8341   70.3345 C   0  0  0  0  0  0  0  0  0  0  0  0
  -10.5520    9.4617   70.4528 C   0  0  2  0  0  0  0  0  0  0  0  0
  -11.7129   10.4960   70.3058 C   0  0  1  0  0  0  0  0  0  0  0  0
  -13.0153   16.1114   73.5588 C   0  0  0  0  0  0  0  0  0  0  0  0
  -10.2845    8.6593   69.1722 C   0  0  0  0  0  0  0  0  0  0  0  0
  -10.4872   13.4024   68.1976 C   0  0  0  0  0  0  0  0  0  0  0  0
  -11.5517   14.5024   68.1900 C   0  0  1  0  0  0  0  0  0  0  0  0
  -10.7979    7.0039   73.2754 N   0  0  0  0  0  0  0  0  0  0  0  0
  -12.0527    7.4547   73.0837 N   0  0  0  0  0  0  0  0  0  0  0  0
  -10.7689   12.4569   69.2539 N   0  0  0  0  0  0  0  0  0  0  0  0
  -12.1114   10.9950   68.0361 O   0  0  0  0  0  0  0  0  0  0  0  0
  -12.7243   14.0350   67.5226 O   0  0  0  0  0  0  0  0  0  0  0  0
  -14.2638   13.9641   72.2128 F   0  0  0  0  0  0  0  0  0  0  0  0
  1  2  2  0
  1  6  1  0
  2  7  1  0
  3  6  2  0
  3  8  1  0
  4  5  1  0
  4 19  2  0
  5  9  2  0
  5 13  1  0
  6 18  1  0
  7  8  2  0
  7 15  1  0
  8 24  1  0
  9 11  1  0
  9 20  1  0
 14 10  1  6
 10 21  1  0
 10 22  2  0
 11 12  1  0
 12 14  1  0
 13 14  1  0
 13 16  1  6
 17 18  1  0
 17 21  1  0
 18 23  1  1
 19 20  1  0
M  END
>  <idnumber>  (74) 
Z4113608572

>  <Chemgauss4>  (74) 
-12.2327947616577

>  <Hetero-Bemis-Murcko>  (74) 
c1ccc(cc1)CCNCC2CCc3c(cn[nH]3)C2

>  <MW>  (74) 
331.391

>  <HBD>  (74) 
3

>  <HBA>  (74) 
3

>  <RotBonds>  (74) 
4

>  <XLogP>  (74) 
1.45499980449677

>  <sLogP>  (74) 
2.373

>  <TPSA>  (74) 
78.0099945068359

>  <FSP3>  (74) 
0.444

>  <QED>  (74) 
0.805

$$$$
s_270004____10890016____7548336
     RDKit          3D

 26 29  0  0  1  0  0  0  0  0999 V2000
  -10.1497   10.5157   64.0396 C   0  0  0  0  0  0  0  0  0  0  0  0
  -13.7179   15.7847   73.4554 C   0  0  0  0  0  0  0  0  0  0  0  0
  -12.5091   16.4480   73.2449 C   0  0  0  0  0  0  0  0  0  0  0  0
  -14.2184   14.9211   72.4810 C   0  0  0  0  0  0  0  0  0  0  0  0
  -11.8007   16.2477   72.0601 C   0  0  0  0  0  0  0  0  0  0  0  0
  -13.5101   14.7208   71.2962 C   0  0  0  0  0  0  0  0  0  0  0  0
  -12.0940   12.0737   63.5360 C   0  0  0  0  0  0  0  0  0  0  0  0
  -11.0839   11.6292   69.0905 C   0  0  0  0  0  0  0  0  0  0  0  0
  -10.9406   11.6811   64.2283 C   0  0  0  0  0  0  0  0  0  0  0  0
  -12.3012   15.3841   71.0857 C   0  0  0  0  0  0  0  0  0  0  0  0
  -10.7259   12.6796   65.1506 C   0  0  0  0  0  0  0  0  0  0  0  0
  -11.5991   13.7251   69.3157 C   0  0  0  0  0  0  0  0  0  0  0  0
  -11.8238   14.7572   65.7528 C   0  0  0  0  0  0  0  0  0  0  0  0
   -9.8634   13.9357   66.8163 C   0  0  0  0  0  0  0  0  0  0  0  0
  -10.9105   14.9911   66.7045 C   0  0  0  0  0  0  0  0  0  0  0  0
  -12.2181   17.4913   69.2288 C   0  0  0  0  0  0  0  0  0  0  0  0
  -10.8626   16.1663   67.6140 C   0  0  0  0  0  0  0  0  0  0  0  0
  -11.5300   15.1656   69.7944 C   0  0  1  0  0  0  0  0  0  0  0  0
   -9.5038    9.5640   63.8854 N   0  0  0  0  0  0  0  0  0  0  0  0
  -12.5907   13.2315   63.9700 N   0  0  0  0  0  0  0  0  0  0  0  0
  -12.1437   11.8571   68.3480 N   0  0  0  0  0  0  0  0  0  0  0  0
  -12.4715   13.1905   68.4913 N   0  0  0  0  0  0  0  0  0  0  0  0
   -9.7648   12.8563   66.1008 N   0  0  0  0  0  0  0  0  0  0  0  0
  -10.7070   12.7778   69.7177 N   0  0  0  0  0  0  0  0  0  0  0  0
  -11.7489   13.6100   64.9674 N   0  0  0  0  0  0  0  0  0  0  0  0
  -11.8892   16.1228   68.6844 N   0  0  1  0  0  0  0  0  0  0  0  0
  1  9  1  0
  1 19  3  0
  2  3  2  0
  2  4  1  0
  3  5  1  0
  4  6  2  0
  5 10  2  0
  6 10  1  0
  7  9  1  0
  7 20  2  0
  8 21  2  0
  8 24  1  0
  9 11  2  0
 18 10  1  1
 11 23  1  0
 11 25  1  0
 12 18  1  0
 12 22  2  0
 12 24  1  0
 13 15  2  0
 13 25  1  0
 14 15  1  0
 14 23  2  0
 15 17  1  0
 26 16  1  1
 17 26  1  0
 18 26  1  0
 20 25  1  0
 21 22  1  0
M  CHG  1  26   1
M  END
>  <idnumber>  (75) 
s_270004____10890016____7548336

>  <Chemgauss4>  (75) 
-12.168083190918

>  <Hetero-Bemis-Murcko>  (75) 
c1ccc(cc1)C(c2[nH]cnn2)[NH2+]Cc3cnc4ccnn4c3

>  <MW>  (75) 
344.382

>  <HBD>  (75) 
1

>  <HBA>  (75) 
7

>  <RotBonds>  (75) 
5

>  <XLogP>  (75) 
1.807000041008

>  <sLogP>  (75) 
1.94

>  <TPSA>  (75) 
99.9900054931641

>  <FSP3>  (75) 
0.167

>  <QED>  (75) 
0.594

$$$$
Z2242916235
     RDKit          3D

 23 24  0  0  1  0  0  0  0  0999 V2000
  -12.7539   15.9180   73.5419 C   0  0  0  0  0  0  0  0  0  0  0  0
  -13.5069   14.7828   73.2422 C   0  0  0  0  0  0  0  0  0  0  0  0
  -11.8234   16.4007   72.6217 C   0  0  0  0  0  0  0  0  0  0  0  0
  -12.3988   14.6128   71.1020 C   0  0  0  0  0  0  0  0  0  0  0  0
  -13.3294   14.1302   72.0223 C   0  0  0  0  0  0  0  0  0  0  0  0
  -11.6459   15.7481   71.4017 C   0  0  0  0  0  0  0  0  0  0  0  0
  -11.3264   11.6653   69.1446 C   0  0  0  0  0  0  0  0  0  0  0  0
  -12.0086   14.3417   67.2535 C   0  0  0  0  0  0  0  0  0  0  0  0
  -11.6521   12.3382   65.0508 C   0  0  0  0  0  0  0  0  0  0  0  0
  -12.0782   12.2111   63.6025 C   0  0  0  0  0  0  0  0  0  0  0  0
  -11.9695   14.5594   64.2600 C   0  0  0  0  0  0  0  0  0  0  0  0
  -11.0229   13.7206   65.1005 C   0  0  1  0  0  0  0  0  0  0  0  0
  -10.2535   10.6736   69.4508 C   0  0  0  0  0  0  0  0  0  0  0  0
   -9.5132   14.5678   66.8257 C   0  0  0  0  0  0  0  0  0  0  0  0
  -11.7645   14.8729   68.6646 C   0  0  0  0  0  0  0  0  0  0  0  0
  -12.2060   13.9037   69.7758 C   0  0  1  0  0  0  0  0  0  0  0  0
  -11.2643   12.8124   69.9101 N   0  0  0  0  0  0  0  0  0  0  0  0
  -10.8776   14.2157   66.4388 N   0  0  0  0  0  0  0  0  0  0  0  0
  -12.4686   13.6071   63.2106 N   0  0  0  0  0  0  0  0  0  0  0  0
  -12.1527   11.4124   68.2756 O   0  0  0  0  0  0  0  0  0  0  0  0
  -13.1470   14.0460   66.8810 O   0  0  0  0  0  0  0  0  0  0  0  0
  -14.0574   13.0399   71.7436 F   0  0  0  0  0  0  0  0  0  0  0  0
  -10.7492   16.2192   70.5240 F   0  0  0  0  0  0  0  0  0  0  0  0
  1  2  2  0
  1  3  1  0
  2  5  1  0
  3  6  2  0
  4  5  2  0
  4  6  1  0
  4 16  1  0
  5 22  1  0
  6 23  1  0
  7 13  1  0
  7 17  1  0
  7 20  2  0
  8 15  1  0
  8 18  1  0
  8 21  2  0
  9 10  1  0
  9 12  1  0
 10 19  1  0
 11 12  1  0
 11 19  1  0
 12 18  1  1
 14 18  1  0
 16 15  1  6
 16 17  1  0
M  CHG  1  19   1
M  END
>  <idnumber>  (76) 
Z2242916235

>  <Chemgauss4>  (76) 
-12.3197383880615

>  <Hetero-Bemis-Murcko>  (76) 
c1ccc(cc1)CCCNC2CC[NH2+]C2

>  <MW>  (76) 
325.359

>  <HBD>  (76) 
2

>  <HBA>  (76) 
3

>  <RotBonds>  (76) 
5

>  <XLogP>  (76) 
1.21599972248077

>  <sLogP>  (76) 
1.352

>  <TPSA>  (76) 
66.0200042724609

>  <FSP3>  (76) 
0.5

>  <QED>  (76) 
0.859

$$$$
Z3793751073
     RDKit          3D

 28 32  0  0  1  0  0  0  0  0999 V2000
  -10.5994   12.3958   65.3246 C   0  0  0  0  0  0  0  0  0  0  0  0
  -10.5686   13.0234   66.5649 C   0  0  0  0  0  0  0  0  0  0  0  0
  -11.7199   12.5821   64.5312 C   0  0  0  0  0  0  0  0  0  0  0  0
  -12.7176   13.9304   66.1011 C   0  0  0  0  0  0  0  0  0  0  0  0
  -11.6440   13.8071   66.9682 C   0  0  0  0  0  0  0  0  0  0  0  0
  -11.1744   11.4087   69.3262 C   0  0  0  0  0  0  0  0  0  0  0  0
  -13.1081   14.5939   73.0026 C   0  0  0  0  0  0  0  0  0  0  0  0
  -12.0053   15.6021   72.6749 C   0  0  0  0  0  0  0  0  0  0  0  0
  -13.2041   13.6636   71.7973 C   0  0  0  0  0  0  0  0  0  0  0  0
  -11.4784   15.2183   71.2961 C   0  0  0  0  0  0  0  0  0  0  0  0
  -10.3196    6.4661   71.3192 C   0  0  0  0  0  0  0  0  0  0  0  0
   -9.5853    8.8325   71.7117 C   0  0  0  0  0  0  0  0  0  0  0  0
  -10.8123    8.2278   69.6024 C   0  0  0  0  0  0  0  0  0  0  0  0
  -11.4496    7.8543   73.0779 C   0  0  0  0  0  0  0  0  0  0  0  0
  -12.6776    7.2491   70.9669 C   0  0  0  0  0  0  0  0  0  0  0  0
  -11.9463    9.6246   71.3601 C   0  0  0  0  0  0  0  0  0  0  0  0
  -10.1076    7.5521   72.3879 C   0  0  1  0  0  0  0  0  0  0  0  0
  -11.3389    6.9452   70.2712 C   0  0  2  0  0  0  0  0  0  0  0  0
  -12.6509   14.4934   70.6430 C   0  0  0  0  0  0  0  0  0  0  0  0
  -10.5966    9.3409   70.6561 C   0  0  1  0  0  0  0  0  0  0  0  0
  -12.4633    8.3396   72.0291 C   0  0  2  0  0  0  0  0  0  0  0  0
  -11.6406   14.5021   68.3087 C   0  0  0  0  0  0  0  0  0  0  0  0
  -10.0701   10.6123   69.9852 C   0  0  0  0  0  0  0  0  0  0  0  0
  -12.2438   13.6550   69.4440 C   0  0  1  0  0  0  0  0  0  0  0  0
  -12.7836   13.3359   64.8887 N   0  0  0  0  0  0  0  0  0  0  0  0
  -11.2752   12.6760   69.8816 N   0  0  0  0  0  0  0  0  0  0  0  0
  -13.7572    8.6265   72.6996 N   0  0  0  0  0  0  0  0  0  0  0  0
  -11.8774   10.9739   68.4180 O   0  0  0  0  0  0  0  0  0  0  0  0
  1  2  2  0
  1  3  1  0
  2  5  1  0
  3 25  2  0
  4  5  2  0
  4 25  1  0
  5 22  1  0
  6 23  1  0
  6 26  1  0
  6 28  2  0
  7  8  1  0
  7  9  1  0
  8 10  1  0
  9 19  1  0
 10 19  1  0
 17 11  1  6
 18 11  1  1
 12 17  1  0
 12 20  1  0
 13 18  1  0
 13 20  1  0
 14 17  1  0
 14 21  1  0
 15 18  1  0
 15 21  1  0
 16 20  1  0
 16 21  1  0
 19 24  1  0
 20 23  1  6
 21 27  1  1
 24 22  1  6
 24 26  1  0
M  CHG  1  27   1
M  END
>  <idnumber>  (77) 
Z3793751073

>  <Chemgauss4>  (77) 
-13.0531444549561

>  <Hetero-Bemis-Murcko>  (77) 
c1cc(cnc1)CC(C2CCCC2)NCCC34CC5CC(C3)CC(C5)C4

>  <MW>  (77) 
381.564

>  <HBD>  (77) 
2

>  <HBA>  (77) 
3

>  <RotBonds>  (77) 
6

>  <XLogP>  (77) 
3.8459997177124

>  <sLogP>  (77) 
3.987

>  <TPSA>  (77) 
69.629997253418

>  <FSP3>  (77) 
0.75

>  <QED>  (77) 
0.783

$$$$
Z2031989108
     RDKit          3D

 30 33  0  0  1  0  0  0  0  0999 V2000
  -11.7821   16.0119   71.6247 C   0  0  0  0  0  0  0  0  0  0  0  0
  -11.5663   14.6349   69.9410 C   0  0  0  0  0  0  0  0  0  0  0  0
  -12.3988   16.5048   72.8084 C   0  0  0  0  0  0  0  0  0  0  0  0
  -13.4802   15.8705   73.3031 C   0  0  0  0  0  0  0  0  0  0  0  0
  -14.0351   14.6903   72.6549 C   0  0  0  0  0  0  0  0  0  0  0  0
  -13.4536   14.2240   71.5370 C   0  0  0  0  0  0  0  0  0  0  0  0
  -13.4181    8.6156   72.4107 C   0  0  0  0  0  0  0  0  0  0  0  0
  -10.8316    9.9836   69.9276 C   0  0  0  0  0  0  0  0  0  0  0  0
  -11.6636   11.0308   69.2875 C   0  0  0  0  0  0  0  0  0  0  0  0
  -12.8905    9.3548   71.1962 C   0  0  0  0  0  0  0  0  0  0  0  0
  -10.8122    5.3094   72.6097 C   0  0  0  0  0  0  0  0  0  0  0  0
  -10.4667    5.4973   71.1359 C   0  0  0  0  0  0  0  0  0  0  0  0
  -10.4575    6.5482   73.4290 C   0  0  0  0  0  0  0  0  0  0  0  0
  -11.1259    6.7468   70.5565 C   0  0  0  0  0  0  0  0  0  0  0  0
  -11.0947    7.8268   72.8725 C   0  0  1  0  0  0  0  0  0  0  0  0
  -10.7863    7.9983   71.3840 C   0  0  2  0  0  0  0  0  0  0  0  0
  -12.4395   14.8491   64.5936 C   0  0  0  0  0  0  0  0  0  0  0  0
  -11.3477   13.8071   67.5582 C   0  0  0  0  0  0  0  0  0  0  0  0
  -12.0488   12.9339   66.5161 C   0  0  0  0  0  0  0  0  0  0  0  0
  -11.8147   13.4822   68.9881 C   0  0  1  0  0  0  0  0  0  0  0  0
  -10.7428   16.4005   70.9172 N   0  0  0  0  0  0  0  0  0  0  0  0
  -10.6075   15.5298   69.8539 N   0  0  0  0  0  0  0  0  0  0  0  0
  -12.3396   14.8866   71.0378 N   0  0  0  0  0  0  0  0  0  0  0  0
  -12.5277    7.8430   73.1133 N   0  0  0  0  0  0  0  0  0  0  0  0
  -11.4805    9.1772   70.8594 N   0  0  0  0  0  0  0  0  0  0  0  0
  -11.1743   12.2981   69.5141 N   0  0  0  0  0  0  0  0  0  0  0  0
  -14.6058    8.7072   72.7276 O   0  0  0  0  0  0  0  0  0  0  0  0
   -9.6645    9.9345   69.5632 O   0  0  0  0  0  0  0  0  0  0  0  0
  -12.6561   10.7220   68.6454 O   0  0  0  0  0  0  0  0  0  0  0  0
  -11.4711   13.3438   64.8432 S   0  0  0  0  0  0  0  0  0  0  0  0
  1  3  1  0
  1 21  2  0
  1 23  1  0
  2 20  1  0
  2 22  2  0
  2 23  1  0
  3  4  2  0
  4  5  1  0
  5  6  2  0
  6 23  1  0
  7 10  1  0
  7 24  1  0
  7 27  2  0
  8  9  1  0
  8 25  1  0
  8 28  2  0
  9 26  1  0
  9 29  2  0
 10 25  1  0
 11 12  1  0
 11 13  1  0
 12 14  1  0
 15 13  1  6
 16 14  1  6
 15 16  1  0
 15 24  1  0
 16 25  1  0
 17 30  1  0
 18 19  1  0
 20 18  1  6
 19 30  1  0
 20 26  1  0
 21 22  1  0
M  END
>  <idnumber>  (78) 
Z2031989108

>  <Chemgauss4>  (78) 
-12.2869567871094

>  <Hetero-Bemis-Murcko>  (78) 
c1ccn2c(c1)nnc2CNCCN3CCNC4C3CCCC4

>  <MW>  (78) 
430.534

>  <HBD>  (78) 
2

>  <HBA>  (78) 
7

>  <RotBonds>  (78) 
5

>  <XLogP>  (78) 
1.18099975585938

>  <sLogP>  (78) 
0.909

>  <TPSA>  (78) 
108.699996948242

>  <FSP3>  (78) 
0.55

>  <QED>  (78) 
0.683

$$$$
s_240690____12857416____15877588
     RDKit          3D

 22 25  0  0  1  0  0  0  0  0999 V2000
  -12.8214   15.1283   73.6498 C   0  0  0  0  0  0  0  0  0  0  0  0
  -12.2024   16.3465   73.3827 C   0  0  0  0  0  0  0  0  0  0  0  0
  -13.0420   14.2169   72.6175 C   0  0  0  0  0  0  0  0  0  0  0  0
  -11.8071   16.6569   72.0821 C   0  0  0  0  0  0  0  0  0  0  0  0
  -11.7987    6.2286   71.2995 C   0  0  0  0  0  0  0  0  0  0  0  0
  -10.5118    9.5513   71.4475 C   0  0  0  0  0  0  0  0  0  0  0  0
  -11.1974    5.8991   72.4956 C   0  0  0  0  0  0  0  0  0  0  0  0
  -12.6384   14.5130   71.3076 C   0  0  0  0  0  0  0  0  0  0  0  0
  -12.0310   15.7515   71.0358 C   0  0  0  0  0  0  0  0  0  0  0  0
  -11.5086    7.5789   70.9720 C   0  0  0  0  0  0  0  0  0  0  0  0
  -10.7262    8.2150   71.8918 C   0  0  0  0  0  0  0  0  0  0  0  0
  -11.1919    9.6546   70.2536 C   0  0  0  0  0  0  0  0  0  0  0  0
  -11.2915   10.8465   69.3724 C   0  0  0  0  0  0  0  0  0  0  0  0
  -12.9254   13.5269   70.2013 C   0  0  0  0  0  0  0  0  0  0  0  0
  -11.5695   16.0975   69.6491 C   0  0  0  0  0  0  0  0  0  0  0  0
  -12.0771   13.7252   68.9419 C   0  0  2  0  0  0  0  0  0  0  0  0
  -10.6430   13.2228   69.0744 C   0  0  0  0  0  0  0  0  0  0  0  0
  -11.7975    8.4621   69.9612 N   0  0  0  0  0  0  0  0  0  0  0  0
  -10.6213   11.9946   69.7989 N   0  0  0  0  0  0  0  0  0  0  0  0
  -12.0882   15.1803   68.5830 N   0  0  0  0  0  0  0  0  0  0  0  0
  -11.9591   10.7780   68.3437 O   0  0  0  0  0  0  0  0  0  0  0  0
  -10.3023    7.1813   73.2160 S   0  0  0  0  0  0  0  0  0  0  0  0
  1  2  2  0
  1  3  1  0
  2  4  1  0
  3  8  2  0
  4  9  2  0
  5  7  2  0
  5 10  1  0
  6 11  1  0
  6 12  2  0
  7 22  1  0
  8  9  1  0
  8 14  1  0
  9 15  1  0
 10 11  2  0
 10 18  1  0
 11 22  1  0
 12 13  1  0
 12 18  1  0
 13 19  1  0
 13 21  2  0
 14 16  1  0
 15 20  1  0
 16 17  1  1
 16 20  1  0
 17 19  1  0
M  CHG  1  20   1
M  END
>  <idnumber>  (79) 
s_240690____12857416____15877588

>  <Chemgauss4>  (79) 
-12.3833179473877

>  <Hetero-Bemis-Murcko>  (79) 
c1ccc2c(c1)CC([NH2+]C2)CNCc3cc4c([nH]3)ccs4

>  <MW>  (79) 
311.41

>  <HBD>  (79) 
3

>  <HBA>  (79) 
3

>  <RotBonds>  (79) 
3

>  <XLogP>  (79) 
2.31299948692322

>  <sLogP>  (79) 
2.674

>  <TPSA>  (79) 
61.5

>  <FSP3>  (79) 
0.235

>  <QED>  (79) 
0.696

$$$$
Z1743359426
     RDKit          3D

 25 27  0  0  1  0  0  0  0  0999 V2000
  -12.1959   10.8160   70.7986 C   0  0  0  0  0  0  0  0  0  0  0  0
  -13.9663   15.4808   73.2682 C   0  0  0  0  0  0  0  0  0  0  0  0
  -11.7708   16.2099   72.5719 C   0  0  0  0  0  0  0  0  0  0  0  0
  -13.2924   15.2494   70.9597 C   0  0  0  0  0  0  0  0  0  0  0  0
  -10.0181    9.3437   70.0371 C   0  0  0  0  0  0  0  0  0  0  0  0
  -11.9226    9.6059   71.4305 C   0  0  0  0  0  0  0  0  0  0  0  0
  -12.7273   16.0440   73.5735 C   0  0  0  0  0  0  0  0  0  0  0  0
  -14.2489   15.0834   71.9613 C   0  0  0  0  0  0  0  0  0  0  0  0
  -12.0534   15.8127   71.2649 C   0  0  0  0  0  0  0  0  0  0  0  0
  -10.8146    8.8388   71.0559 C   0  0  0  0  0  0  0  0  0  0  0  0
  -11.3303   11.2187   69.7952 C   0  0  0  0  0  0  0  0  0  0  0  0
  -11.2835    7.2066   72.6027 C   0  0  0  0  0  0  0  0  0  0  0  0
  -12.7963    9.1013   72.5129 C   0  0  0  0  0  0  0  0  0  0  0  0
  -11.5565   12.4712   69.0945 C   0  0  0  0  0  0  0  0  0  0  0  0
  -12.4259   16.4689   74.9710 C   0  0  0  0  0  0  0  0  0  0  0  0
  -15.5737   14.4815   71.6342 C   0  0  0  0  0  0  0  0  0  0  0  0
  -10.0306   15.1271   67.9928 C   0  0  0  0  0  0  0  0  0  0  0  0
  -11.0177   15.9925   70.1810 C   0  0  0  0  0  0  0  0  0  0  0  0
  -11.1066   14.9384   69.0623 C   0  0  2  0  0  0  0  0  0  0  0  0
  -10.2474   10.5138   69.3970 N   0  0  0  0  0  0  0  0  0  0  0  0
  -10.4958    7.6110   71.6626 N   0  0  0  0  0  0  0  0  0  0  0  0
  -12.3967    7.8856   73.0443 N   0  0  0  0  0  0  0  0  0  0  0  0
  -10.9568   13.6178   69.6300 N   0  0  0  0  0  0  0  0  0  0  0  0
  -13.7813    9.7278   72.8852 O   0  0  0  0  0  0  0  0  0  0  0  0
  -12.2719   12.5066   68.0768 O   0  0  0  0  0  0  0  0  0  0  0  0
  1  6  2  0
  1 11  1  0
  2  7  2  0
  2  8  1  0
  3  7  1  0
  3  9  2  0
  4  8  2  0
  4  9  1  0
  5 10  2  0
  5 20  1  0
  6 10  1  0
  6 13  1  0
  7 15  1  0
  8 16  1  0
  9 18  1  0
 10 21  1  0
 11 14  1  0
 11 20  2  0
 12 21  2  0
 12 22  1  0
 13 22  1  0
 13 24  2  0
 14 23  1  0
 14 25  2  0
 19 17  1  6
 18 19  1  0
 19 23  1  0
M  END
>  <idnumber>  (80) 
Z1743359426

>  <Chemgauss4>  (80) 
-12.1820440292358

>  <Hetero-Bemis-Murcko>  (80) 
c1c2cc(ncc2nc[nH]1)CNCCc3ccccc3

>  <MW>  (80) 
336.395

>  <HBD>  (80) 
2

>  <HBA>  (80) 
4

>  <RotBonds>  (80) 
4

>  <XLogP>  (80) 
1.76799976825714

>  <sLogP>  (80) 
2.296

>  <TPSA>  (80) 
87.7399978637695

>  <FSP3>  (80) 
0.263

>  <QED>  (80) 
0.765

$$$$
Z1401225885
     RDKit          3D

 30 33  0  0  0  0  0  0  0  0999 V2000
  -14.4534   15.3059   72.0016 C   0  0  0  0  0  0  0  0  0  0  0  0
  -13.5823   15.4711   70.9248 C   0  0  0  0  0  0  0  0  0  0  0  0
  -13.9792   15.4288   73.3076 C   0  0  0  0  0  0  0  0  0  0  0  0
   -8.3946   17.6318   67.1009 C   0  0  0  0  0  0  0  0  0  0  0  0
   -9.0595   19.1008   68.9000 C   0  0  0  0  0  0  0  0  0  0  0  0
   -7.5658   18.6312   66.5911 C   0  0  0  0  0  0  0  0  0  0  0  0
   -8.2307   20.1003   68.3902 C   0  0  0  0  0  0  0  0  0  0  0  0
  -11.7626   15.8819   72.4601 C   0  0  0  0  0  0  0  0  0  0  0  0
  -12.6488   10.9569   71.4155 C   0  0  0  0  0  0  0  0  0  0  0  0
  -10.1369   15.6246   68.2302 C   0  0  0  0  0  0  0  0  0  0  0  0
  -12.5175   10.7211   69.1801 C   0  0  0  0  0  0  0  0  0  0  0  0
  -12.2369   15.7591   71.1541 C   0  0  0  0  0  0  0  0  0  0  0  0
  -11.0326   14.9819   69.0494 C   0  0  0  0  0  0  0  0  0  0  0  0
  -12.6338   15.7168   73.5369 C   0  0  0  0  0  0  0  0  0  0  0  0
   -9.1415   17.8666   68.2553 C   0  0  0  0  0  0  0  0  0  0  0  0
  -12.3125   11.6157   70.2072 C   0  0  0  0  0  0  0  0  0  0  0  0
   -7.4838   19.8654   67.2358 C   0  0  0  0  0  0  0  0  0  0  0  0
  -11.3407   15.9283   70.0451 C   0  0  0  0  0  0  0  0  0  0  0  0
  -13.0489    9.6797   71.0900 C   0  0  0  0  0  0  0  0  0  0  0  0
  -11.5064   13.6420   68.8711 C   0  0  0  0  0  0  0  0  0  0  0  0
  -13.4837    8.6362   71.9637 C   0  0  0  0  0  0  0  0  0  0  0  0
  -12.1280   15.8493   74.9334 C   0  0  0  0  0  0  0  0  0  0  0  0
  -10.6931   17.0842   69.8758 N   0  0  0  0  0  0  0  0  0  0  0  0
  -12.9648    9.5475   69.7285 N   0  0  0  0  0  0  0  0  0  0  0  0
   -9.9691   16.8683   68.7644 N   0  0  0  0  0  0  0  0  0  0  0  0
  -13.5290    8.8891   73.3440 N   0  0  0  0  0  0  0  0  0  0  0  0
  -11.8520   12.9476   70.0521 N   0  0  0  0  0  0  0  0  0  0  0  0
  -11.5806   13.0982   67.7474 O   0  0  0  0  0  0  0  0  0  0  0  0
  -13.8105    7.4975   71.5431 O   0  0  0  0  0  0  0  0  0  0  0  0
   -6.6879   20.8251   66.7462 F   0  0  0  0  0  0  0  0  0  0  0  0
  1  2  2  0
  1  3  1  0
  2 12  1  0
  3 14  2  0
  4  6  2  0
  4 15  1  0
  5  7  1  0
  5 15  2  0
  6 17  1  0
  7 17  2  0
  8 12  2  0
  8 14  1  0
  9 16  1  0
  9 19  2  0
 10 13  2  0
 10 25  1  0
 11 16  2  0
 11 24  1  0
 12 18  1  0
 13 18  1  0
 13 20  1  0
 14 22  1  0
 15 25  1  0
 16 27  1  0
 17 30  1  0
 18 23  2  0
 19 21  1  0
 19 24  1  0
 20 27  1  0
 20 28  2  0
 21 26  1  0
 21 29  2  0
 23 25  1  0
M  END
>  <idnumber>  (81) 
Z1401225885

>  <Chemgauss4>  (81) 
-12.1486730575562

>  <Hetero-Bemis-Murcko>  (81) 
c1ccc(cc1)c2c(cn(n2)c3ccccc3)CNc4cc[nH]c4

>  <MW>  (81) 
403.417

>  <HBD>  (81) 
3

>  <HBA>  (81) 
4

>  <RotBonds>  (81) 
5

>  <XLogP>  (81) 
2.92499995231628

>  <sLogP>  (81) 
3.666

>  <TPSA>  (81) 
105.799995422363

>  <FSP3>  (81) 
0.045

>  <QED>  (81) 
0.473

$$$$
Z1731613003
     RDKit          3D

 18 20  0  0  1  0  0  0  0  0999 V2000
  -12.7588   13.4705   65.8324 C   0  0  0  0  0  0  0  0  0  0  0  0
  -12.0880   12.6386   64.9299 C   0  0  0  0  0  0  0  0  0  0  0  0
  -10.0378   12.7494   66.2386 C   0  0  0  0  0  0  0  0  0  0  0  0
  -10.6961   13.5864   67.1554 C   0  0  0  0  0  0  0  0  0  0  0  0
  -12.0281   13.9230   66.9315 C   0  0  0  0  0  0  0  0  0  0  0  0
  -10.7517   12.2831   65.1275 C   0  0  0  0  0  0  0  0  0  0  0  0
  -11.2519   14.8505   68.7840 C   0  0  0  0  0  0  0  0  0  0  0  0
  -12.5605   15.8818   73.2573 C   0  0  0  0  0  0  0  0  0  0  0  0
  -12.6531   16.0200   74.5877 C   0  0  0  0  0  0  0  0  0  0  0  0
  -13.7654   15.8702   72.3625 C   0  0  0  0  0  0  0  0  0  0  0  0
  -11.2398   15.6647   72.5711 C   0  0  0  0  0  0  0  0  0  0  0  0
  -13.8227   14.6076   71.4938 C   0  0  0  0  0  0  0  0  0  0  0  0
  -12.4897   13.8801   71.3196 C   0  0  0  0  0  0  0  0  0  0  0  0
  -11.2774   15.6768   70.0361 C   0  0  0  0  0  0  0  0  0  0  0  0
  -10.2311   14.1716   68.3107 N   0  0  0  0  0  0  0  0  0  0  0  0
  -12.3575   14.7321   67.9886 N   0  0  0  0  0  0  0  0  0  0  0  0
  -11.3329   14.8460   71.2898 N   0  0  1  0  0  0  0  0  0  0  0  0
   -9.8897   11.1542   63.8764 Br  0  0  0  0  0  0  0  0  0  0  0  0
  1  2  2  0
  1  5  1  0
  2  6  1  0
  3  4  1  0
  3  6  2  0
  4  5  2  0
  4 15  1  0
  5 16  1  0
  6 18  1  0
  7 14  1  0
  7 15  2  0
  7 16  1  0
  8  9  2  0
  8 10  1  0
  8 11  1  0
 10 12  1  0
 11 17  1  0
 12 13  1  0
 13 17  1  0
 17 14  1  6
M  CHG  1  17   1
M  END
>  <idnumber>  (82) 
Z1731613003

>  <Chemgauss4>  (82) 
-12.2595796585083

>  <Hetero-Bemis-Murcko>  (82) 
c1ccc2c(c1)[nH]c(n2)C[NH+]3CCCCC3

>  <MW>  (82) 
306.207

>  <HBD>  (82) 
1

>  <HBA>  (82) 
2

>  <RotBonds>  (82) 
2

>  <XLogP>  (82) 
3.20700001716614

>  <sLogP>  (82) 
3.477

>  <TPSA>  (82) 
33.1199989318848

>  <FSP3>  (82) 
0.357

>  <QED>  (82) 
0.862

$$$$
Z3554346233
     RDKit          3D

 28 30  0  0  1  0  0  0  0  0999 V2000
  -11.3255   16.0258   71.2266 C   0  0  0  0  0  0  0  0  0  0  0  0
  -13.1639   14.4988   70.8724 C   0  0  0  0  0  0  0  0  0  0  0  0
  -11.8840   16.4159   72.4438 C   0  0  0  0  0  0  0  0  0  0  0  0
  -13.7224   14.8888   72.0896 C   0  0  0  0  0  0  0  0  0  0  0  0
  -11.9655   15.0673   70.4408 C   0  0  0  0  0  0  0  0  0  0  0  0
  -13.0824   15.8474   72.8753 C   0  0  0  0  0  0  0  0  0  0  0  0
  -11.9072   11.0673   69.9723 C   0  0  0  0  0  0  0  0  0  0  0  0
  -11.0847   12.8559   67.3444 C   0  0  0  0  0  0  0  0  0  0  0  0
  -10.2562    9.2773   70.5220 C   0  0  0  0  0  0  0  0  0  0  0  0
  -10.9296    7.9031   70.4327 C   0  0  0  0  0  0  0  0  0  0  0  0
  -13.1437    7.0328   71.3952 C   0  0  0  0  0  0  0  0  0  0  0  0
  -14.5366    7.5728   71.7068 C   0  0  0  0  0  0  0  0  0  0  0  0
  -13.7335    9.7974   71.9879 C   0  0  0  0  0  0  0  0  0  0  0  0
  -11.3044   10.2526   71.0790 C   0  0  2  0  0  0  0  0  0  0  0  0
  -12.3065    9.3373   71.7584 C   0  0  2  0  0  0  0  0  0  0  0  0
  -11.1625   11.3939   64.8994 C   0  0  0  0  0  0  0  0  0  0  0  0
  -12.5654   13.2873   64.0297 C   0  0  0  0  0  0  0  0  0  0  0  0
  -10.2035   13.7172   64.7679 C   0  0  0  0  0  0  0  0  0  0  0  0
  -11.3599   14.6439   69.1216 C   0  0  0  0  0  0  0  0  0  0  0  0
  -11.6661   13.1962   68.7103 C   0  0  2  0  0  0  0  0  0  0  0  0
  -11.4640   12.8879   65.0092 C   0  0  0  0  0  0  0  0  0  0  0  0
  -11.2537   12.2610   69.7322 N   0  0  0  0  0  0  0  0  0  0  0  0
  -12.3578    8.1644   70.8121 N   0  0  1  0  0  0  0  0  0  0  0  0
  -12.8918   10.6444   69.3779 O   0  0  0  0  0  0  0  0  0  0  0  0
   -9.9634   12.3787   67.2030 O   0  0  0  0  0  0  0  0  0  0  0  0
  -14.4808    8.7172   72.5689 O   0  0  0  0  0  0  0  0  0  0  0  0
  -13.6265   16.2272   74.0637 O   0  0  0  0  0  0  0  0  0  0  0  0
  -11.9424   13.1599   66.3304 O   0  0  0  0  0  0  0  0  0  0  0  0
  1  3  2  0
  1  5  1  0
  2  4  1  0
  2  5  2  0
  3  6  1  0
  4  6  2  0
  5 19  1  0
  6 27  1  0
 14  7  1  6
  7 22  1  0
  7 24  2  0
  8 20  1  0
  8 25  2  0
  8 28  1  0
  9 10  1  0
  9 14  1  0
 23 10  1  1
 11 12  1  0
 11 23  1  0
 12 26  1  0
 15 13  1  6
 13 26  1  0
 14 15  1  0
 15 23  1  0
 16 21  1  0
 17 21  1  0
 18 21  1  0
 20 19  1  1
 20 22  1  0
 21 28  1  0
M  CHG  1  23   1
M  END
>  <idnumber>  (83) 
Z3554346233

>  <Chemgauss4>  (83) 
-12.3658275604248

>  <Hetero-Bemis-Murcko>  (83) 
c1ccc(cc1)CCNCC2CC[NH+]3C2COCC3

>  <MW>  (83) 
390.48

>  <HBD>  (83) 
2

>  <HBA>  (83) 
6

>  <RotBonds>  (83) 
5

>  <XLogP>  (83) 
0.830999851226807

>  <sLogP>  (83) 
1.482

>  <TPSA>  (83) 
89.3000030517578

>  <FSP3>  (83) 
0.619

>  <QED>  (83) 
0.741

$$$$
Z1797399457
     RDKit          3D

 33 37  0  0  1  0  0  0  0  0999 V2000
  -10.7027    6.7167   67.4525 C   0  0  0  0  0  0  0  0  0  0  0  0
  -10.8990    6.8132   68.6330 C   0  0  0  0  0  0  0  0  0  0  0  0
  -10.1525   11.7573   63.1059 C   0  0  0  0  0  0  0  0  0  0  0  0
   -9.8718   10.4132   63.3509 C   0  0  0  0  0  0  0  0  0  0  0  0
  -10.4179   12.6196   64.1698 C   0  0  0  0  0  0  0  0  0  0  0  0
   -9.8566    9.9312   64.6598 C   0  0  0  0  0  0  0  0  0  0  0  0
  -11.9094   13.7322   66.6032 C   0  0  0  0  0  0  0  0  0  0  0  0
   -9.7302   13.2937   67.5497 C   0  0  0  0  0  0  0  0  0  0  0  0
  -12.1803   14.6247   67.6403 C   0  0  0  0  0  0  0  0  0  0  0  0
  -10.0011   14.1863   68.5868 C   0  0  0  0  0  0  0  0  0  0  0  0
  -10.6844   13.0666   66.5579 C   0  0  0  0  0  0  0  0  0  0  0  0
  -10.4026   12.1376   65.4787 C   0  0  0  0  0  0  0  0  0  0  0  0
  -10.1219   10.7934   65.7237 C   0  0  0  0  0  0  0  0  0  0  0  0
  -11.2261   14.8518   68.6321 C   0  0  0  0  0  0  0  0  0  0  0  0
  -10.0978   10.2592   67.0549 C   0  0  0  0  0  0  0  0  0  0  0  0
  -10.7418    9.7233   68.9463 C   0  0  0  0  0  0  0  0  0  0  0  0
  -13.2640   10.2824   71.8346 C   0  0  0  0  0  0  0  0  0  0  0  0
  -13.8642    8.8862   71.8872 C   0  0  0  0  0  0  0  0  0  0  0  0
  -12.5282   10.5098   70.5205 C   0  0  0  0  0  0  0  0  0  0  0  0
  -12.8069    7.8191   71.6632 C   0  0  0  0  0  0  0  0  0  0  0  0
  -13.2275   14.5738   71.0812 C   0  0  0  0  0  0  0  0  0  0  0  0
  -11.5745   16.0339   72.2289 C   0  0  0  0  0  0  0  0  0  0  0  0
  -13.4272   13.8647   72.4100 C   0  0  0  0  0  0  0  0  0  0  0  0
  -11.8601   15.2497   73.4985 C   0  0  0  0  0  0  0  0  0  0  0  0
  -11.4537    9.4393   70.2569 C   0  0  1  0  0  0  0  0  0  0  0  0
  -11.1341    6.9264   70.0701 C   0  0  0  0  0  0  0  0  0  0  0  0
  -11.5158   15.8059   69.7411 C   0  0  0  0  0  0  0  0  0  0  0  0
  -11.1965   10.3005   67.8630 N   0  0  0  0  0  0  0  0  0  0  0  0
   -9.0090    9.6926   67.5832 N   0  0  0  0  0  0  0  0  0  0  0  0
  -11.8228   15.1282   71.0455 N   0  0  0  0  0  0  0  0  0  0  0  0
  -12.1060    8.0515   70.3402 N   0  0  1  0  0  0  0  0  0  0  0  0
   -9.4439    9.3294   68.8641 O   0  0  0  0  0  0  0  0  0  0  0  0
  -13.2035   14.7645   73.4965 O   0  0  0  0  0  0  0  0  0  0  0  0
  1  2  3  0
  2 26  1  0
  3  4  2  0
  3  5  1  0
  4  6  1  0
  5 12  2  0
  6 13  2  0
  7  9  2  0
  7 11  1  0
  8 10  1  0
  8 11  2  0
  9 14  1  0
 10 14  2  0
 11 12  1  0
 12 13  1  0
 13 15  1  0
 14 27  1  0
 15 28  1  0
 15 29  2  0
 25 16  1  6
 16 28  2  0
 16 32  1  0
 17 18  1  0
 17 19  1  0
 18 20  1  0
 19 25  1  0
 20 31  1  0
 21 23  1  0
 21 30  1  0
 22 24  1  0
 22 30  1  0
 23 33  1  0
 24 33  1  0
 25 31  1  0
 31 26  1  1
 27 30  1  0
 29 32  1  0
M  CHG  2  30   1  31   1
M  END
>  <idnumber>  (84) 
Z1797399457

>  <Chemgauss4>  (84) 
-13.0177745819092

>  <Hetero-Bemis-Murcko>  (84) 
c1ccc(c(c1)c2ccc(cc2)C[NH+]3CCOCC3)c4nc(on4)C5CCCC[NH2+]5

>  <MW>  (84) 
442.563

>  <HBD>  (84) 
0

>  <HBA>  (84) 
6

>  <RotBonds>  (84) 
6

>  <XLogP>  (84) 
4.85099983215332

>  <sLogP>  (84) 
4.396

>  <TPSA>  (84) 
57.0299987792969

>  <FSP3>  (84) 
0.407

>  <QED>  (84) 
0.528

$$$$
Z2657971782
     RDKit          3D

 18 18  0  0  1  0  0  0  0  0999 V2000
  -11.7323   15.0818   67.9074 C   0  0  0  0  0  0  0  0  0  0  0  0
  -13.1696   15.6614   73.8509 C   0  0  0  0  0  0  0  0  0  0  0  0
  -14.2301   15.7897   72.7663 C   0  0  0  0  0  0  0  0  0  0  0  0
  -11.8053   16.1853   73.4103 C   0  0  0  0  0  0  0  0  0  0  0  0
  -14.2347   14.7058   71.6925 C   0  0  0  0  0  0  0  0  0  0  0  0
  -11.0108   15.2331   72.5211 C   0  0  0  0  0  0  0  0  0  0  0  0
  -12.9300   13.9708   71.3870 C   0  0  0  0  0  0  0  0  0  0  0  0
  -11.6638   14.8211   71.1890 C   0  0  0  0  0  0  0  0  0  0  0  0
  -10.5845   12.0960   63.9385 C   0  0  0  0  0  0  0  0  0  0  0  0
  -11.8571   15.9949   70.2263 C   0  0  0  0  0  0  0  0  0  0  0  0
  -12.5705   12.7637   65.3529 C   0  0  0  0  0  0  0  0  0  0  0  0
  -12.0679   14.1847   65.6081 C   0  0  0  0  0  0  0  0  0  0  0  0
  -12.1046   12.1353   64.0325 C   0  0  1  0  0  0  0  0  0  0  0  0
  -12.4578   15.5326   69.0219 N   0  0  0  0  0  0  0  0  0  0  0  0
  -12.5684   14.6877   66.8657 N   0  0  0  0  0  0  0  0  0  0  0  0
  -10.6547   13.9034   70.5227 N   0  0  0  0  0  0  0  0  0  0  0  0
  -12.6143   12.9351   62.8840 N   0  0  0  0  0  0  0  0  0  0  0  0
  -10.5035   15.0415   67.8630 O   0  0  0  0  0  0  0  0  0  0  0  0
  1 14  1  0
  1 15  1  0
  1 18  2  0
  2  3  1  0
  2  4  1  0
  3  5  1  0
  4  6  1  0
  5  7  1  0
  6  8  1  0
  7  8  1  0
  8 10  1  0
  8 16  1  0
 13  9  1  1
 10 14  1  0
 11 12  1  0
 11 13  1  0
 12 15  1  0
 13 17  1  0
M  CHG  2  16   1  17   1
M  END
>  <idnumber>  (85) 
Z2657971782

>  <Chemgauss4>  (85) 
-12.646993637085

>  <Hetero-Bemis-Murcko>  (85) 
C1CCCCCC1

>  <MW>  (85) 
256.394

>  <HBD>  (85) 
4

>  <HBA>  (85) 
3

>  <RotBonds>  (85) 
5

>  <XLogP>  (85) 
1.19799971580505

>  <sLogP>  (85) 
1.075

>  <TPSA>  (85) 
96.4099960327148

>  <FSP3>  (85) 
0.923

>  <QED>  (85) 
0.554

$$$$
s_270006____8393384____10863980
     RDKit          3D

 25 27  0  0  1  0  0  0  0  0999 V2000
   -9.4031    8.2982   71.2096 C   0  0  0  0  0  0  0  0  0  0  0  0
  -10.5497    8.3606   72.0014 C   0  0  0  0  0  0  0  0  0  0  0  0
   -9.1838    9.2594   70.2227 C   0  0  0  0  0  0  0  0  0  0  0  0
  -11.4771    9.3840   71.8064 C   0  0  0  0  0  0  0  0  0  0  0  0
  -10.1113   10.2829   70.0277 C   0  0  0  0  0  0  0  0  0  0  0  0
  -11.2579   10.3452   70.8195 C   0  0  0  0  0  0  0  0  0  0  0  0
  -11.8245   14.4602   66.8840 C   0  0  0  0  0  0  0  0  0  0  0  0
  -11.4480   11.7898   65.5814 C   0  0  0  0  0  0  0  0  0  0  0  0
  -12.9282   11.6135   65.4338 C   0  0  0  0  0  0  0  0  0  0  0  0
  -12.2935   15.2649   64.5878 C   0  0  0  0  0  0  0  0  0  0  0  0
  -12.1705   13.1496   63.4760 C   0  0  0  0  0  0  0  0  0  0  0  0
  -12.6030   14.1959   65.6386 C   0  0  1  0  0  0  0  0  0  0  0  0
  -12.2757   12.8884   64.9492 C   0  0  0  0  0  0  0  0  0  0  0  0
  -13.3418   11.0863   69.5926 C   0  0  0  0  0  0  0  0  0  0  0  0
  -14.7301   15.3064   71.9543 C   0  0  0  0  0  0  0  0  0  0  0  0
  -13.0238   16.1058   73.6009 C   0  0  0  0  0  0  0  0  0  0  0  0
  -12.3821   14.4246   71.7881 C   0  0  0  0  0  0  0  0  0  0  0  0
  -12.0587   14.9707   69.3062 C   0  0  0  0  0  0  0  0  0  0  0  0
  -12.2625   11.4542   70.6076 C   0  0  2  0  0  0  0  0  0  0  0  0
  -13.2505   15.6452   72.1608 C   0  0  0  0  0  0  0  0  0  0  0  0
  -12.5042   13.9255   70.3374 C   0  0  1  0  0  0  0  0  0  0  0  0
  -12.6130   14.6925   67.9853 N   0  0  0  0  0  0  0  0  0  0  0  0
  -12.5663   14.5818   63.2813 N   0  0  0  0  0  0  0  0  0  0  0  0
  -11.6391   12.7222   70.1529 N   0  0  0  0  0  0  0  0  0  0  0  0
  -10.5997   14.4514   66.8442 O   0  0  0  0  0  0  0  0  0  0  0  0
  1  2  2  0
  1  3  1  0
  2  4  1  0
  3  5  2  0
  4  6  2  0
  5  6  1  0
  6 19  1  0
 12  7  1  1
  7 22  1  0
  7 25  2  0
  8  9  1  0
  8 13  1  0
  9 13  1  0
 10 12  1  0
 10 23  1  0
 11 13  1  0
 11 23  1  0
 12 13  1  0
 19 14  1  6
 15 20  1  0
 16 20  1  0
 17 20  1  0
 21 17  1  1
 18 21  1  0
 18 22  1  0
 19 24  1  0
 21 24  1  0
M  CHG  2  23   1  24   1
M  END
>  <idnumber>  (86) 
s_270006____8393384____10863980

>  <Chemgauss4>  (86) 
-12.4309196472168

>  <Hetero-Bemis-Murcko>  (86) 
c1ccc(cc1)C[NH2+]CCNCC2C[NH2+]CC23CC3

>  <MW>  (86) 
343.515

>  <HBD>  (86) 
3

>  <HBA>  (86) 
3

>  <RotBonds>  (86) 
8

>  <XLogP>  (86) 
3.60599994659424

>  <sLogP>  (86) 
2.868

>  <TPSA>  (86) 
62.3199996948242

>  <FSP3>  (86) 
0.667

>  <QED>  (86) 
0.68

$$$$
Z3631812007
     RDKit          3D

 21 23  0  0  1  0  0  0  0  0999 V2000
   -9.8876   10.9249   63.0529 C   0  0  0  0  0  0  0  0  0  0  0  0
  -12.1272   13.3564   65.9175 C   0  0  0  0  0  0  0  0  0  0  0  0
  -11.0830   15.2250   65.1446 C   0  0  0  0  0  0  0  0  0  0  0  0
  -13.0577   15.8207   73.0833 C   0  0  0  0  0  0  0  0  0  0  0  0
  -13.7599   14.5247   72.6663 C   0  0  0  0  0  0  0  0  0  0  0  0
  -11.9733   16.0715   72.0387 C   0  0  0  0  0  0  0  0  0  0  0  0
  -13.0560   14.0505   71.3980 C   0  0  0  0  0  0  0  0  0  0  0  0
  -10.7358   16.2033   67.8681 C   0  0  0  0  0  0  0  0  0  0  0  0
  -10.6452   16.2717   69.3825 C   0  0  0  0  0  0  0  0  0  0  0  0
  -11.8214   14.2531   68.6569 C   0  0  0  0  0  0  0  0  0  0  0  0
  -12.4314   13.4198   64.4275 C   0  0  2  0  0  0  0  0  0  0  0  0
  -10.8610   14.7173   67.5791 C   0  0  1  0  0  0  0  0  0  0  0  0
  -12.4828   15.3299   70.8161 C   0  0  0  0  0  0  0  0  0  0  0  0
  -10.3874   12.0869   63.7995 C   0  0  0  0  0  0  0  0  0  0  0  0
  -11.9088   12.2020   63.6940 C   0  0  0  0  0  0  0  0  0  0  0  0
   -9.4910   10.0072   62.4638 N   0  0  0  0  0  0  0  0  0  0  0  0
  -11.7261   14.6221   64.0623 N   0  0  0  0  0  0  0  0  0  0  0  0
  -11.3420   14.4409   66.2568 N   0  0  0  0  0  0  0  0  0  0  0  0
  -11.3868   15.0413   69.8743 N   0  0  2  0  0  0  0  0  0  0  0  0
  -12.5279   12.4711   66.6619 O   0  0  0  0  0  0  0  0  0  0  0  0
  -10.4241   16.2556   65.0958 O   0  0  0  0  0  0  0  0  0  0  0  0
  1 14  1  0
  1 16  3  0
  2 11  1  0
  2 18  1  0
  2 20  2  0
  3 17  1  0
  3 18  1  0
  3 21  2  0
  4  5  1  0
  4  6  1  0
  5  7  1  0
  6 13  1  0
  7 13  1  0
  8  9  1  0
  8 12  1  0
  9 19  1  0
 10 12  1  0
 10 19  1  0
 11 15  1  6
 11 17  1  0
 12 18  1  6
 19 13  1  6
 14 15  1  0
M  CHG  1  19   1
M  END
>  <idnumber>  (87) 
Z3631812007

>  <Chemgauss4>  (87) 
-12.1949138641357

>  <Hetero-Bemis-Murcko>  (87) 
C1CCC(C1)[NH+]2CCC(C2)N3CCNC3

>  <MW>  (87) 
290.367

>  <HBD>  (87) 
1

>  <HBA>  (87) 
4

>  <RotBonds>  (87) 
4

>  <XLogP>  (87) 
0.811999797821045

>  <sLogP>  (87) 
1.227

>  <TPSA>  (87) 
77.6399993896484

>  <FSP3>  (87) 
0.8

>  <QED>  (87) 
0.79

$$$$
Z3381932895
     RDKit          3D

 21 23  0  0  1  0  0  0  0  0999 V2000
  -12.0527   15.4649   73.3251 C   0  0  0  0  0  0  0  0  0  0  0  0
  -11.3905   15.7314   72.1268 C   0  0  0  0  0  0  0  0  0  0  0  0
  -13.3369   14.9206   73.3064 C   0  0  0  0  0  0  0  0  0  0  0  0
  -13.2968   14.9094   70.8907 C   0  0  0  0  0  0  0  0  0  0  0  0
  -12.0126   15.4537   70.9096 C   0  0  0  0  0  0  0  0  0  0  0  0
  -13.9589   14.6429   72.0891 C   0  0  0  0  0  0  0  0  0  0  0  0
  -11.3668   13.2989   68.8420 C   0  0  0  0  0  0  0  0  0  0  0  0
  -12.0326    6.3831   70.6442 C   0  0  0  0  0  0  0  0  0  0  0  0
  -11.0632    6.6838   69.5364 C   0  0  0  0  0  0  0  0  0  0  0  0
  -12.7046   10.9154   71.3836 C   0  0  0  0  0  0  0  0  0  0  0  0
  -13.0773    9.4475   71.2742 C   0  0  0  0  0  0  0  0  0  0  0  0
  -11.3782   10.0548   69.6235 C   0  0  0  0  0  0  0  0  0  0  0  0
  -12.2074   11.2700   69.9927 C   0  0  2  0  0  0  0  0  0  0  0  0
  -11.3585    7.7237   70.5792 C   0  0  0  0  0  0  0  0  0  0  0  0
  -10.5054   14.5275   69.0997 C   0  0  0  0  0  0  0  0  0  0  0  0
  -11.2929   15.7432   69.6097 C   0  0  1  0  0  0  0  0  0  0  0  0
  -11.4484   12.4867   69.9655 N   0  0  0  0  0  0  0  0  0  0  0  0
  -12.1874    8.8997   70.1729 N   0  0  1  0  0  0  0  0  0  0  0  0
  -12.2323   16.1784   68.5261 N   0  0  0  0  0  0  0  0  0  0  0  0
  -11.9208   13.0754   67.7692 O   0  0  0  0  0  0  0  0  0  0  0  0
  -15.1922   14.1206   72.0709 F   0  0  0  0  0  0  0  0  0  0  0  0
  1  2  2  0
  1  3  1  0
  2  5  1  0
  3  6  2  0
  4  5  2  0
  4  6  1  0
  5 16  1  0
  6 21  1  0
  7 15  1  0
  7 17  1  0
  7 20  2  0
  8  9  1  0
  8 14  1  0
  9 14  1  0
 10 11  1  0
 10 13  1  0
 11 18  1  0
 12 13  1  0
 12 18  1  0
 13 17  1  1
 18 14  1  1
 15 16  1  0
 16 19  1  6
M  CHG  2  18   1  19   1
M  END
>  <idnumber>  (88) 
Z3381932895

>  <Chemgauss4>  (88) 
-12.3390960693359

>  <Hetero-Bemis-Murcko>  (88) 
c1ccc(cc1)CCCNC2CC[NH+](C2)C3CC3

>  <MW>  (88) 
291.37

>  <HBD>  (88) 
2

>  <HBA>  (88) 
3

>  <RotBonds>  (88) 
5

>  <XLogP>  (88) 
1.67899978160858

>  <sLogP>  (88) 
1.568

>  <TPSA>  (88) 
61.1799964904785

>  <FSP3>  (88) 
0.562

>  <QED>  (88) 
0.866

$$$$
Z3703332828
     RDKit          3D

 22 23  0  0  1  0  0  0  0  0999 V2000
  -11.4643   11.6231   68.9578 C   0  0  0  0  0  0  0  0  0  0  0  0
  -11.0689    6.1437   70.6731 C   0  0  0  0  0  0  0  0  0  0  0  0
  -10.9919    7.4920   69.9720 C   0  0  0  0  0  0  0  0  0  0  0  0
  -12.4326    6.1352   71.3671 C   0  0  0  0  0  0  0  0  0  0  0  0
  -13.5810   14.9386   70.6693 C   0  0  0  0  0  0  0  0  0  0  0  0
  -11.9636   15.9616   72.2914 C   0  0  0  0  0  0  0  0  0  0  0  0
  -14.5511   14.7953   71.8358 C   0  0  0  0  0  0  0  0  0  0  0  0
  -13.0244   15.7612   73.3670 C   0  0  0  0  0  0  0  0  0  0  0  0
  -12.1312   14.9332   71.1671 C   0  0  0  0  0  0  0  0  0  0  0  0
  -11.6842    8.4063   70.9658 C   0  0  2  0  0  0  0  0  0  0  0  0
  -12.8882    7.5982   71.4326 C   0  0  2  0  0  0  0  0  0  0  0  0
  -10.4129   17.0043   68.3514 C   0  0  0  0  0  0  0  0  0  0  0  0
  -12.9151   10.5205   71.2564 C   0  0  0  0  0  0  0  0  0  0  0  0
  -10.9861   10.3927   69.6869 C   0  0  0  0  0  0  0  0  0  0  0  0
  -11.3948   16.6130   69.4465 C   0  0  0  0  0  0  0  0  0  0  0  0
  -11.2168   14.0881   68.9655 C   0  0  0  0  0  0  0  0  0  0  0  0
  -11.1558   15.2024   70.0247 C   0  0  2  0  0  0  0  0  0  0  0  0
  -10.9154   12.7843   69.4898 N   0  0  0  0  0  0  0  0  0  0  0  0
  -12.1131    9.6591   70.3110 N   0  0  1  0  0  0  0  0  0  0  0  0
  -12.2439   11.5845   68.0096 O   0  0  0  0  0  0  0  0  0  0  0  0
  -14.3340   15.8215   72.8034 O   0  0  0  0  0  0  0  0  0  0  0  0
  -13.2390    7.9646   72.7568 O   0  0  0  0  0  0  0  0  0  0  0  0
  1 14  1  0
  1 18  1  0
  1 20  2  0
  2  3  1  0
  2  4  1  0
 10  3  1  6
  4 11  1  0
  5  7  1  0
  5  9  1  0
  6  8  1  0
  6  9  1  0
  7 21  1  0
  8 21  1  0
  9 17  1  0
 10 11  1  0
 10 19  1  0
 11 22  1  1
 12 15  1  0
 19 13  1  1
 14 19  1  0
 17 15  1  6
 16 17  1  0
 16 18  1  0
M  CHG  1  19   1
M  END
>  <idnumber>  (89) 
Z3703332828

>  <Chemgauss4>  (89) 
-12.3848972320557

>  <Hetero-Bemis-Murcko>  (89) 
C1CCC(C1)[NH2+]CCNCCC2CCOCC2

>  <MW>  (89) 
312.454

>  <HBD>  (89) 
2

>  <HBA>  (89) 
4

>  <RotBonds>  (89) 
7

>  <XLogP>  (89) 
1.50199973583221

>  <sLogP>  (89) 
1.401

>  <TPSA>  (89) 
62.9999961853027

>  <FSP3>  (89) 
0.941

>  <QED>  (89) 
0.746

$$$$
Z4061428792
     RDKit          3D

 22 23  0  0  1  0  0  0  0  0999 V2000
  -10.5620   16.5357   66.7140 C   0  0  0  0  0  0  0  0  0  0  0  0
  -13.4880   14.6116   72.8362 C   0  0  0  0  0  0  0  0  0  0  0  0
  -12.1685   15.2750   73.2161 C   0  0  0  0  0  0  0  0  0  0  0  0
  -13.2912   13.5878   71.7234 C   0  0  0  0  0  0  0  0  0  0  0  0
  -10.8063   11.8474   64.2752 C   0  0  0  0  0  0  0  0  0  0  0  0
  -12.4073   13.6895   64.8726 C   0  0  0  0  0  0  0  0  0  0  0  0
  -11.4704   15.8757   72.0044 C   0  0  0  0  0  0  0  0  0  0  0  0
  -12.5888   14.1942   70.5172 C   0  0  0  0  0  0  0  0  0  0  0  0
   -9.6877   12.7450   64.7918 C   0  0  0  0  0  0  0  0  0  0  0  0
  -11.9745   12.7010   63.7938 C   0  0  2  0  0  0  0  0  0  0  0  0
  -11.1962   14.4963   65.3527 C   0  0  1  0  0  0  0  0  0  0  0  0
  -10.6535   19.7655   66.8717 C   0  0  0  0  0  0  0  0  0  0  0  0
  -11.5735   15.4189   66.5034 C   0  0  0  0  0  0  0  0  0  0  0  0
  -10.1440   19.4595   68.2729 C   0  0  0  0  0  0  0  0  0  0  0  0
   -9.5076   18.0789   68.3799 C   0  0  0  0  0  0  0  0  0  0  0  0
  -11.2193   16.4740   69.1321 C   0  0  0  0  0  0  0  0  0  0  0  0
  -10.4864   15.3157   69.7822 C   0  0  0  0  0  0  0  0  0  0  0  0
  -10.4341   17.0113   68.0233 N   0  0  0  0  0  0  0  0  0  0  0  0
  -11.2792   14.8068   70.9544 N   0  0  0  0  0  0  0  0  0  0  0  0
  -13.1175   11.8194   63.4472 N   0  0  0  0  0  0  0  0  0  0  0  0
   -9.9085   16.9759   65.7644 O   0  0  0  0  0  0  0  0  0  0  0  0
  -10.1680   13.6143   65.8183 O   0  0  0  0  0  0  0  0  0  0  0  0
  1 13  1  0
  1 18  1  0
  1 21  2  0
  2  3  1  0
  2  4  1  0
  3  7  1  0
  4  8  1  0
  5  9  1  0
  5 10  1  0
  6 10  1  0
  6 11  1  0
  7 19  1  0
  8 19  1  0
  9 22  1  0
 10 20  1  1
 11 13  1  1
 11 22  1  0
 12 14  1  0
 14 15  1  0
 15 18  1  0
 16 17  1  0
 16 18  1  0
 17 19  1  0
M  CHG  2  19   1  20   1
M  END
>  <idnumber>  (90) 
Z4061428792

>  <Chemgauss4>  (90) 
-12.2265567779541

>  <Hetero-Bemis-Murcko>  (90) 
C1CC[NH+](CC1)CCNCCC2CCCCO2

>  <MW>  (90) 
311.47

>  <HBD>  (90) 
1

>  <HBA>  (90) 
4

>  <RotBonds>  (90) 
7

>  <XLogP>  (90) 
1.21499955654144

>  <sLogP>  (90) 
1.607

>  <TPSA>  (90) 
61.6199989318848

>  <FSP3>  (90) 
0.941

>  <QED>  (90) 
0.776

$$$$
Z2274677955
     RDKit          3D

 25 28  0  0  1  0  0  0  0  0999 V2000
  -12.8360    9.1791   70.6034 C   0  0  0  0  0  0  0  0  0  0  0  0
  -12.6218   10.4363   70.0386 C   0  0  0  0  0  0  0  0  0  0  0  0
  -11.7953    8.2518   70.6567 C   0  0  0  0  0  0  0  0  0  0  0  0
  -10.7983   12.7074   64.3496 C   0  0  0  0  0  0  0  0  0  0  0  0
  -12.0276   15.2544   72.5137 C   0  0  0  0  0  0  0  0  0  0  0  0
  -10.3261    9.8390   69.5800 C   0  0  0  0  0  0  0  0  0  0  0  0
  -11.0711   12.0353   63.1431 C   0  0  0  0  0  0  0  0  0  0  0  0
  -12.6138   16.5279   72.6413 C   0  0  0  0  0  0  0  0  0  0  0  0
  -11.3668   10.7662   69.5268 C   0  0  0  0  0  0  0  0  0  0  0  0
  -10.5404    8.5818   70.1449 C   0  0  0  0  0  0  0  0  0  0  0  0
  -12.0072   13.2385   64.7278 C   0  0  0  0  0  0  0  0  0  0  0  0
  -12.6290   14.7090   71.4058 C   0  0  0  0  0  0  0  0  0  0  0  0
  -11.6713   14.8689   68.0596 C   0  0  0  0  0  0  0  0  0  0  0  0
  -12.0206   12.4965   67.7008 C   0  0  0  0  0  0  0  0  0  0  0  0
  -10.7989   14.5923   69.2788 C   0  0  0  0  0  0  0  0  0  0  0  0
  -11.1348   12.1355   68.9121 C   0  0  1  0  0  0  0  0  0  0  0  0
  -12.4118   14.0671   65.9125 C   0  0  0  0  0  0  0  0  0  0  0  0
  -12.4626   13.3816   70.7266 C   0  0  0  0  0  0  0  0  0  0  0  0
  -12.3528   12.1292   62.7790 N   0  0  0  0  0  0  0  0  0  0  0  0
  -13.5181   16.7769   71.6904 N   0  0  0  0  0  0  0  0  0  0  0  0
  -12.8961   12.8664   63.7626 N   0  0  0  0  0  0  0  0  0  0  0  0
  -13.5045   15.6524   70.9546 N   0  0  0  0  0  0  0  0  0  0  0  0
  -11.6007   13.7680   67.0924 N   0  0  0  0  0  0  0  0  0  0  0  0
  -11.1884   13.2833   69.9256 N   0  0  2  0  0  0  0  0  0  0  0  0
   -9.5410    7.6914   70.1956 F   0  0  0  0  0  0  0  0  0  0  0  0
  1  2  2  0
  1  3  1  0
  2  9  1  0
  3 10  2  0
  4  7  1  0
  4 11  2  0
  5  8  1  0
  5 12  2  0
  6  9  2  0
  6 10  1  0
  7 19  2  0
  8 20  2  0
 16  9  1  1
 10 25  1  0
 11 17  1  0
 11 21  1  0
 12 18  1  0
 12 22  1  0
 13 15  1  0
 13 23  1  0
 14 16  1  0
 14 23  1  0
 15 24  1  0
 16 24  1  0
 17 23  1  0
 24 18  1  6
 19 21  1  0
 20 22  1  0
M  CHG  1  24   1
M  END
>  <idnumber>  (91) 
Z2274677955

>  <Chemgauss4>  (91) 
-12.1936178207397

>  <Hetero-Bemis-Murcko>  (91) 
c1ccc(cc1)C2CN(CC[NH+]2Cc3ccn[nH]3)Cc4ccn[nH]4

>  <MW>  (91) 
340.406

>  <HBD>  (91) 
2

>  <HBA>  (91) 
4

>  <RotBonds>  (91) 
5

>  <XLogP>  (91) 
1.49799990653992

>  <sLogP>  (91) 
2.331

>  <TPSA>  (91) 
65.0400009155273

>  <FSP3>  (91) 
0.333

>  <QED>  (91) 
0.748

$$$$
Z3369881851
     RDKit          3D

 24 26  0  0  1  0  0  0  0  0999 V2000
   -9.9972   15.7402   65.8983 C   0  0  0  0  0  0  0  0  0  0  0  0
  -10.9442   15.5728   64.7686 C   0  0  0  0  0  0  0  0  0  0  0  0
  -13.3094   15.2906   73.6952 C   0  0  0  0  0  0  0  0  0  0  0  0
  -14.2124   15.1780   72.4708 C   0  0  0  0  0  0  0  0  0  0  0  0
  -12.0621   16.1171   73.3983 C   0  0  0  0  0  0  0  0  0  0  0  0
  -13.4557   14.6346   71.2609 C   0  0  0  0  0  0  0  0  0  0  0  0
  -11.3018   15.5755   72.1898 C   0  0  0  0  0  0  0  0  0  0  0  0
  -12.3307   14.8077   68.5256 C   0  0  0  0  0  0  0  0  0  0  0  0
  -10.1654   15.6892   69.4822 C   0  0  0  0  0  0  0  0  0  0  0  0
  -11.5633   14.3277   67.2924 C   0  0  0  0  0  0  0  0  0  0  0  0
   -9.4400   15.1889   68.2331 C   0  0  0  0  0  0  0  0  0  0  0  0
  -10.2192   13.1640   64.4624 C   0  0  0  0  0  0  0  0  0  0  0  0
  -12.4338   13.8447   63.7935 C   0  0  0  0  0  0  0  0  0  0  0  0
  -12.2048   15.4689   70.9535 C   0  0  0  0  0  0  0  0  0  0  0  0
  -10.8640   12.0456   63.6397 C   0  0  2  0  0  0  0  0  0  0  0  0
  -12.3543   12.3283   63.8421 C   0  0  2  0  0  0  0  0  0  0  0  0
  -11.4368   14.8752   69.7741 C   0  0  0  0  0  0  0  0  0  0  0  0
  -10.4340   10.6570   64.0815 C   0  0  0  0  0  0  0  0  0  0  0  0
  -10.3468   15.1201   67.0897 N   0  0  0  0  0  0  0  0  0  0  0  0
  -11.1687   14.2730   64.3758 N   0  0  0  0  0  0  0  0  0  0  0  0
  -13.1749   11.7165   62.7817 N   0  0  0  0  0  0  0  0  0  0  0  0
   -9.0035   16.4135   65.6578 O   0  0  0  0  0  0  0  0  0  0  0  0
  -11.4313   16.5946   64.3061 O   0  0  0  0  0  0  0  0  0  0  0  0
  -11.0646   13.5384   70.1224 O   0  0  0  0  0  0  0  0  0  0  0  0
  1  2  1  0
  1 19  1  0
  1 22  2  0
  2 20  1  0
  2 23  2  0
  3  4  1  0
  3  5  1  0
  4  6  1  0
  5  7  1  0
  6 14  1  0
  7 14  1  0
  8 10  1  0
  8 17  1  0
  9 11  1  0
  9 17  1  0
 10 19  1  0
 11 19  1  0
 12 15  1  0
 12 20  1  0
 13 16  1  0
 13 20  1  0
 14 17  1  0
 15 16  1  0
 15 18  1  1
 16 21  1  6
 17 24  1  0
M  CHG  1  21   1
M  END
>  <idnumber>  (92) 
Z3369881851

>  <Chemgauss4>  (92) 
-12.6718292236328

>  <Hetero-Bemis-Murcko>  (92) 
C1CCC(CC1)C2CCN(CC2)CCN3CCCC3

>  <MW>  (92) 
337.464

>  <HBD>  (92) 
2

>  <HBA>  (92) 
4

>  <RotBonds>  (92) 
1

>  <XLogP>  (92) 
0.336999624967575

>  <sLogP>  (92) 
0.726

>  <TPSA>  (92) 
88.4899978637695

>  <FSP3>  (92) 
0.889

>  <QED>  (92) 
0.691

$$$$
Z2705675319
     RDKit          3D

 26 28  0  0  1  0  0  0  0  0999 V2000
  -10.8221   13.1017   66.6584 C   0  0  0  0  0  0  0  0  0  0  0  0
  -13.0673   15.3710   73.5515 C   0  0  0  0  0  0  0  0  0  0  0  0
  -11.9254   16.0272   73.0921 C   0  0  0  0  0  0  0  0  0  0  0  0
  -13.8142   14.5782   72.6802 C   0  0  0  0  0  0  0  0  0  0  0  0
  -11.5305   15.8907   71.7613 C   0  0  0  0  0  0  0  0  0  0  0  0
  -13.4193   14.4417   71.3493 C   0  0  0  0  0  0  0  0  0  0  0  0
  -11.2224   14.0620   67.6338 C   0  0  0  0  0  0  0  0  0  0  0  0
  -11.3505   15.4618   67.4569 C   0  0  0  0  0  0  0  0  0  0  0  0
  -12.2775   15.0980   70.8899 C   0  0  0  0  0  0  0  0  0  0  0  0
  -11.7584   15.9929   68.6606 C   0  0  0  0  0  0  0  0  0  0  0  0
  -11.5561   13.7803   68.9402 C   0  0  0  0  0  0  0  0  0  0  0  0
  -11.8495   11.2832   69.0732 C   0  0  0  0  0  0  0  0  0  0  0  0
  -11.3937    8.1036   71.2177 C   0  0  0  0  0  0  0  0  0  0  0  0
  -13.0585    9.8481   71.4018 C   0  0  0  0  0  0  0  0  0  0  0  0
  -12.3331    7.7949   72.3794 C   0  0  1  0  0  0  0  0  0  0  0  0
  -13.5785    8.6422   72.1509 C   0  0  1  0  0  0  0  0  0  0  0  0
  -11.0957   16.2213   66.2142 C   0  0  0  0  0  0  0  0  0  0  0  0
  -12.0406   17.4000   69.0246 C   0  0  0  0  0  0  0  0  0  0  0  0
  -11.1149   10.2101   69.8444 C   0  0  0  0  0  0  0  0  0  0  0  0
  -10.4963   12.3203   65.8647 N   0  0  0  0  0  0  0  0  0  0  0  0
  -11.8805   14.9615   69.5548 N   0  0  0  0  0  0  0  0  0  0  0  0
  -11.5875   12.5374   69.6162 N   0  0  0  0  0  0  0  0  0  0  0  0
  -12.0610    9.2324   70.4603 N   0  0  0  0  0  0  0  0  0  0  0  0
  -12.5597   11.0197   68.1086 O   0  0  0  0  0  0  0  0  0  0  0  0
  -12.6956    6.4212   72.3833 O   0  0  0  0  0  0  0  0  0  0  0  0
  -14.1496    9.0179   73.3919 O   0  0  0  0  0  0  0  0  0  0  0  0
  1  7  1  0
  1 20  3  0
  2  3  2  0
  2  4  1  0
  3  5  1  0
  4  6  2  0
  5  9  2  0
  6  9  1  0
  7  8  1  0
  7 11  2  0
  8 10  2  0
  8 17  1  0
  9 21  1  0
 10 18  1  0
 10 21  1  0
 11 21  1  0
 11 22  1  0
 12 19  1  0
 12 22  1  0
 12 24  2  0
 13 15  1  0
 13 23  1  0
 14 16  1  0
 14 23  1  0
 15 16  1  0
 15 25  1  6
 16 26  1  1
 19 23  1  0
M  CHG  1  23   1
M  END
>  <idnumber>  (93) 
Z2705675319

>  <Chemgauss4>  (93) 
-12.5462665557861

>  <Hetero-Bemis-Murcko>  (93) 
c1ccc(cc1)n2cccc2NCC[NH+]3CCCC3

>  <MW>  (93) 
354.41

>  <HBD>  (93) 
3

>  <HBA>  (93) 
6

>  <RotBonds>  (93) 
4

>  <XLogP>  (93) 
0.372000128030777

>  <sLogP>  (93) 
0.942

>  <TPSA>  (93) 
102.719993591309

>  <FSP3>  (93) 
0.368

>  <QED>  (93) 
0.759

$$$$
Z2518870583
     RDKit          3D

 26 28  0  0  0  0  0  0  0  0999 V2000
  -12.3212   16.3896   73.2996 C   0  0  0  0  0  0  0  0  0  0  0  0
  -12.6983   15.4193   74.2280 C   0  0  0  0  0  0  0  0  0  0  0  0
  -13.5654    8.3985   71.4815 C   0  0  0  0  0  0  0  0  0  0  0  0
  -12.3477    7.7243   71.3918 C   0  0  0  0  0  0  0  0  0  0  0  0
  -12.4093   13.6635   63.6770 C   0  0  0  0  0  0  0  0  0  0  0  0
  -11.8029   12.4500   63.3722 C   0  0  0  0  0  0  0  0  0  0  0  0
  -12.3373   16.0942   71.9364 C   0  0  0  0  0  0  0  0  0  0  0  0
  -13.0914   14.1535   73.7933 C   0  0  0  0  0  0  0  0  0  0  0  0
  -13.5955    9.7925   71.4409 C   0  0  0  0  0  0  0  0  0  0  0  0
  -11.1599    8.4440   71.2616 C   0  0  0  0  0  0  0  0  0  0  0  0
  -12.5386   14.0556   65.0048 C   0  0  0  0  0  0  0  0  0  0  0  0
  -11.3461   11.6712   64.4232 C   0  0  0  0  0  0  0  0  0  0  0  0
  -12.7303   14.8284   71.5017 C   0  0  0  0  0  0  0  0  0  0  0  0
  -13.1073   13.8580   72.4301 C   0  0  0  0  0  0  0  0  0  0  0  0
  -12.4077   10.5122   71.3107 C   0  0  0  0  0  0  0  0  0  0  0  0
  -11.1899    9.8380   71.2211 C   0  0  0  0  0  0  0  0  0  0  0  0
  -12.0491   13.2048   65.9827 C   0  0  0  0  0  0  0  0  0  0  0  0
  -11.3107   13.2673   68.3953 C   0  0  0  0  0  0  0  0  0  0  0  0
  -12.7408   14.5338   70.0317 C   0  0  0  0  0  0  0  0  0  0  0  0
  -13.5312   12.4957   71.9886 C   0  0  0  0  0  0  0  0  0  0  0  0
  -11.4540   12.0185   65.7252 N   0  0  0  0  0  0  0  0  0  0  0  0
  -10.1803   12.4705   68.2093 N   0  0  0  0  0  0  0  0  0  0  0  0
  -12.1822   13.6080   67.3494 N   0  0  0  0  0  0  0  0  0  0  0  0
  -11.5925   13.6881   69.7058 N   0  0  0  0  0  0  0  0  0  0  0  0
  -12.4673   11.8808   71.2737 O   0  0  0  0  0  0  0  0  0  0  0  0
   -9.7059   10.7024   71.0595 Cl  0  0  0  0  0  0  0  0  0  0  0  0
  1  2  2  0
  1  7  1  0
  2  8  1  0
  3  4  2  0
  3  9  1  0
  4 10  1  0
  5  6  2  0
  5 11  1  0
  6 12  1  0
  7 13  2  0
  8 14  2  0
  9 15  2  0
 10 16  2  0
 11 17  2  0
 12 21  2  0
 13 14  1  0
 13 19  1  0
 14 20  1  0
 15 16  1  0
 15 25  1  0
 16 26  1  0
 17 21  1  0
 17 23  1  0
 18 22  1  0
 18 23  1  0
 18 24  2  0
 19 24  1  0
 20 25  1  0
M  CHG  1  24   1
M  END
>  <idnumber>  (94) 
Z2518870583

>  <Chemgauss4>  (94) 
-12.486382484436

>  <Hetero-Bemis-Murcko>  (94) 
c1ccc(cc1)OCc2ccccc2C[NH+]=CNc3ccccn3

>  <MW>  (94) 
366.852

>  <HBD>  (94) 
2

>  <HBA>  (94) 
3

>  <RotBonds>  (94) 
6

>  <XLogP>  (94) 
3.62100005149841

>  <sLogP>  (94) 
4.241

>  <TPSA>  (94) 
74.1399993896484

>  <FSP3>  (94) 
0.1

>  <QED>  (94) 
0.505

$$$$
Z3644221026
     RDKit          3D

 25 27  0  0  1  0  0  0  0  0999 V2000
  -13.4042   10.1654   70.9016 C   0  0  0  0  0  0  0  0  0  0  0  0
  -13.5611    9.2155   71.9150 C   0  0  0  0  0  0  0  0  0  0  0  0
  -10.2252    7.9914   72.5620 C   0  0  0  0  0  0  0  0  0  0  0  0
  -11.0055    9.7911   70.8426 C   0  0  0  0  0  0  0  0  0  0  0  0
  -10.9467    7.2479   73.4673 C   0  0  0  0  0  0  0  0  0  0  0  0
  -11.1390    8.8295   71.8638 C   0  0  0  0  0  0  0  0  0  0  0  0
  -12.1471   10.4503   70.3722 C   0  0  0  0  0  0  0  0  0  0  0  0
  -12.4111    8.5644   72.3754 C   0  0  0  0  0  0  0  0  0  0  0  0
  -11.9686   16.1417   73.4856 C   0  0  0  0  0  0  0  0  0  0  0  0
  -11.7475   15.9767   71.9766 C   0  0  0  0  0  0  0  0  0  0  0  0
  -13.0576   15.1399   73.8759 C   0  0  0  0  0  0  0  0  0  0  0  0
  -12.5181   14.7131   71.5951 C   0  0  1  0  0  0  0  0  0  0  0  0
  -13.6926   14.7521   72.5571 C   0  0  0  0  0  0  0  0  0  0  0  0
   -9.3811   10.2660   66.9858 C   0  0  0  0  0  0  0  0  0  0  0  0
  -12.9286   14.6725   70.1334 C   0  0  0  0  0  0  0  0  0  0  0  0
  -11.4056   10.9040   67.9942 C   0  0  0  0  0  0  0  0  0  0  0  0
  -12.0132   11.4836   69.2744 C   0  0  2  0  0  0  0  0  0  0  0  0
  -12.2642    7.6004   73.3471 N   0  0  0  0  0  0  0  0  0  0  0  0
  -11.2247   12.6411   69.7336 N   0  0  0  0  0  0  0  0  0  0  0  0
  -12.0701   14.0558   67.7390 O   0  0  0  0  0  0  0  0  0  0  0  0
  -10.4585   15.0672   69.3932 O   0  0  0  0  0  0  0  0  0  0  0  0
   -9.9953   10.7900   68.1542 O   0  0  0  0  0  0  0  0  0  0  0  0
  -14.3363   13.5744   72.6301 F   0  0  0  0  0  0  0  0  0  0  0  0
  -14.5898   15.6953   72.1872 F   0  0  0  0  0  0  0  0  0  0  0  0
  -11.5837   14.1904   69.1039 S   0  0  0  0  0  0  0  0  0  0  0  0
  1  2  2  0
  1  7  1  0
  2  8  1  0
  3  5  2  0
  3  6  1  0
  4  6  1  0
  4  7  2  0
  5 18  1  0
  6  8  2  0
  7 17  1  0
  8 18  1  0
  9 10  1  0
  9 11  1  0
 10 12  1  0
 11 13  1  0
 12 13  1  0
 12 15  1  6
 13 23  1  0
 13 24  1  0
 14 22  1  0
 15 25  1  0
 17 16  1  6
 16 22  1  0
 17 19  1  0
 19 25  1  0
 20 25  2  0
 21 25  2  0
M  END
>  <idnumber>  (95) 
Z3644221026

>  <Chemgauss4>  (95) 
-12.2924823760986

>  <Hetero-Bemis-Murcko>  (95) 
c1cc2c(cc[nH]2)cc1CN[SH4]CC3CCCC3

>  <MW>  (95) 
372.437

>  <HBD>  (95) 
2

>  <HBA>  (95) 
3

>  <RotBonds>  (95) 
7

>  <XLogP>  (95) 
2.86099982261658

>  <sLogP>  (95) 
3.21

>  <TPSA>  (95) 
71.1899948120117

>  <FSP3>  (95) 
0.529

>  <QED>  (95) 
0.784

$$$$
s_276492____14269834____14698798
     RDKit          3D

 25 29  0  0  1  0  0  0  0  0999 V2000
   -8.7581    9.3607   64.6671 C   0  0  0  0  0  0  0  0  0  0  0  0
   -8.6025    9.6084   63.2908 C   0  0  0  0  0  0  0  0  0  0  0  0
   -9.7192   10.0476   65.4159 C   0  0  0  0  0  0  0  0  0  0  0  0
   -9.4053   10.5462   62.6394 C   0  0  0  0  0  0  0  0  0  0  0  0
  -10.5082   10.9781   64.7654 C   0  0  0  0  0  0  0  0  0  0  0  0
  -10.3455   11.2103   63.4013 C   0  0  0  0  0  0  0  0  0  0  0  0
  -12.0402   12.6328   64.0376 C   0  0  0  0  0  0  0  0  0  0  0  0
  -12.2846   14.4667   70.0718 C   0  0  0  0  0  0  0  0  0  0  0  0
  -12.5892   15.7761   74.5913 C   0  0  0  0  0  0  0  0  0  0  0  0
  -13.7937   16.0973   73.6893 C   0  0  0  0  0  0  0  0  0  0  0  0
  -11.6085   14.9547   73.7368 C   0  0  0  0  0  0  0  0  0  0  0  0
  -11.0621   12.0487   67.7453 C   0  0  0  0  0  0  0  0  0  0  0  0
  -12.1380   13.9767   66.5372 C   0  0  0  0  0  0  0  0  0  0  0  0
  -10.6839   12.9998   68.8799 C   0  0  0  0  0  0  0  0  0  0  0  0
  -11.7412   14.8936   67.6933 C   0  0  0  0  0  0  0  0  0  0  0  0
  -14.2777   15.5347   71.1900 C   0  0  0  0  0  0  0  0  0  0  0  0
  -11.6144   11.8466   65.2930 C   0  0  2  0  0  0  0  0  0  0  0  0
  -13.2776   15.8021   72.2938 C   0  0  2  0  0  0  0  0  0  0  0  0
  -11.1694   12.7923   66.4059 C   0  0  0  0  0  0  0  0  0  0  0  0
  -12.4274   14.5627   72.5203 C   0  0  1  0  0  0  0  0  0  0  0  0
  -11.2465   12.1805   62.9779 N   0  0  0  0  0  0  0  0  0  0  0  0
  -11.6733   14.2364   71.3202 N   0  0  0  0  0  0  0  0  0  0  0  0
  -11.6271   14.1173   68.9282 N   0  0  0  0  0  0  0  0  0  0  0  0
  -13.5698   15.0379   69.9860 N   0  0  0  0  0  0  0  0  0  0  0  0
  -12.9118   13.4879   63.9945 O   0  0  0  0  0  0  0  0  0  0  0  0
  1  2  2  0
  1  3  1  0
  2  4  1  0
  3  5  2  0
  4  6  2  0
  5  6  1  0
  5 17  1  0
  6 21  1  0
  7 17  1  0
  7 21  1  0
  7 25  2  0
  8 22  1  0
  8 23  1  0
  8 24  2  0
  9 10  1  0
  9 11  1  0
 18 10  1  1
 20 11  1  1
 12 14  1  0
 12 19  1  0
 13 15  1  0
 13 19  1  0
 14 23  1  0
 15 23  1  0
 16 18  1  0
 16 24  1  0
 17 19  1  1
 18 20  1  0
 20 22  1  0
M  CHG  1  24   1
M  END
>  <idnumber>  (96) 
s_276492____14269834____14698798

>  <Chemgauss4>  (96) 
-12.5277881622314

>  <Hetero-Bemis-Murcko>  (96) 
c1ccc2c(c1)C(CN2)C3CCN(CC3)C4=[NH+]CC5CCCC5N4

>  <MW>  (96) 
338.455

>  <HBD>  (96) 
2

>  <HBA>  (96) 
4

>  <RotBonds>  (96) 
1

>  <XLogP>  (96) 
2.01099991798401

>  <sLogP>  (96) 
2.562

>  <TPSA>  (96) 
58.3400001525879

>  <FSP3>  (96) 
0.6

>  <QED>  (96) 
0.827

$$$$
Z1252890711
     RDKit          3D

 26 27  0  0  1  0  0  0  0  0999 V2000
  -13.3638   13.3540   71.7513 C   0  0  0  0  0  0  0  0  0  0  0  0
  -13.9193   14.1394   72.7613 C   0  0  0  0  0  0  0  0  0  0  0  0
  -12.2921   13.8382   71.0011 C   0  0  0  0  0  0  0  0  0  0  0  0
  -13.4033   15.4090   73.0211 C   0  0  0  0  0  0  0  0  0  0  0  0
  -11.7760   15.1078   71.2609 C   0  0  0  0  0  0  0  0  0  0  0  0
  -12.3317   15.8932   72.2709 C   0  0  0  0  0  0  0  0  0  0  0  0
  -11.2822   14.5311   67.3834 C   0  0  0  0  0  0  0  0  0  0  0  0
  -11.2689    7.5574   71.4727 C   0  0  0  0  0  0  0  0  0  0  0  0
  -10.5915    7.5968   69.0391 C   0  0  0  0  0  0  0  0  0  0  0  0
  -11.0617    9.7499   70.2381 C   0  0  0  0  0  0  0  0  0  0  0  0
  -11.3160    6.8112   70.1326 C   0  0  1  0  0  0  0  0  0  0  0  0
  -11.7752    9.0027   71.3675 C   0  0  1  0  0  0  0  0  0  0  0  0
  -10.7039    5.4177   70.2752 C   0  0  0  0  0  0  0  0  0  0  0  0
  -13.2990    9.0615   71.2234 C   0  0  0  0  0  0  0  0  0  0  0  0
  -10.9466   11.7115   66.1933 C   0  0  0  0  0  0  0  0  0  0  0  0
  -11.5045   10.8798   67.3543 C   0  0  0  0  0  0  0  0  0  0  0  0
  -11.9244   12.7839   65.7216 C   0  0  0  0  0  0  0  0  0  0  0  0
  -11.0907   16.2845   69.1420 C   0  0  0  0  0  0  0  0  0  0  0  0
  -10.5739    9.7559   67.7942 C   0  0  0  0  0  0  0  0  0  0  0  0
  -10.6159   15.5960   70.4241 C   0  0  2  0  0  0  0  0  0  0  0  0
  -12.2391   13.7310   66.7551 N   0  0  0  0  0  0  0  0  0  0  0  0
  -11.8586   15.3570   68.3452 N   0  0  0  0  0  0  0  0  0  0  0  0
  -11.1740    8.9866   68.9401 N   0  0  0  0  0  0  0  0  0  0  0  0
  -10.0809   14.5086   67.1191 O   0  0  0  0  0  0  0  0  0  0  0  0
   -9.7939   14.4755   70.0956 O   0  0  0  0  0  0  0  0  0  0  0  0
  -11.7199   17.4687   72.6213 Cl  0  0  0  0  0  0  0  0  0  0  0  0
  1  2  2  0
  1  3  1  0
  2  4  1  0
  3  5  2  0
  4  6  2  0
  5  6  1  0
  5 20  1  0
  6 26  1  0
  7 21  1  0
  7 22  1  0
  7 24  2  0
  8 11  1  0
  8 12  1  0
  9 11  1  0
  9 23  1  0
 10 12  1  0
 10 23  1  0
 11 13  1  1
 12 14  1  6
 15 16  1  0
 15 17  1  0
 16 19  1  0
 17 21  1  0
 18 20  1  0
 18 22  1  0
 19 23  1  0
 20 25  1  6
M  CHG  1  23   1
M  END
>  <idnumber>  (97) 
Z1252890711

>  <Chemgauss4>  (97) 
-12.3530225753784

>  <Hetero-Bemis-Murcko>  (97) 
c1ccc(cc1)CCNCNCCCC[NH+]2CCCCC2

>  <MW>  (97) 
381.948

>  <HBD>  (97) 
3

>  <HBA>  (97) 
3

>  <RotBonds>  (97) 
8

>  <XLogP>  (97) 
3.26799964904785

>  <sLogP>  (97) 
3.431

>  <TPSA>  (97) 
65.8000030517578

>  <FSP3>  (97) 
0.65

>  <QED>  (97) 
0.604

$$$$
Z1204685911
     RDKit          3D

 30 33  0  0  1  0  0  0  0  0999 V2000
  -13.7427   15.7837   73.0145 C   0  0  0  0  0  0  0  0  0  0  0  0
  -12.4303   16.2559   73.0091 C   0  0  0  0  0  0  0  0  0  0  0  0
  -14.2214   15.0415   71.9348 C   0  0  0  0  0  0  0  0  0  0  0  0
  -12.7653    9.7213   71.3997 C   0  0  0  0  0  0  0  0  0  0  0  0
  -11.5964   15.9860   71.9240 C   0  0  0  0  0  0  0  0  0  0  0  0
  -13.3876   14.7717   70.8497 C   0  0  0  0  0  0  0  0  0  0  0  0
  -12.5376    8.7091   72.3319 C   0  0  0  0  0  0  0  0  0  0  0  0
  -10.2003    8.6724   71.7214 C   0  0  0  0  0  0  0  0  0  0  0  0
  -11.7105   10.2091   70.6282 C   0  0  0  0  0  0  0  0  0  0  0  0
  -12.0751   15.2439   70.8442 C   0  0  0  0  0  0  0  0  0  0  0  0
  -11.2552    8.1846   72.4928 C   0  0  0  0  0  0  0  0  0  0  0  0
  -10.4280    9.6847   70.7891 C   0  0  0  0  0  0  0  0  0  0  0  0
  -11.1770   12.0153   64.4734 C   0  0  0  0  0  0  0  0  0  0  0  0
  -10.6102   12.2805   65.6941 C   0  0  0  0  0  0  0  0  0  0  0  0
  -12.0014   11.2876   69.6488 C   0  0  0  0  0  0  0  0  0  0  0  0
  -10.5856   13.3759   67.8398 C   0  0  0  0  0  0  0  0  0  0  0  0
  -12.4172   12.5913   63.9244 C   0  0  0  0  0  0  0  0  0  0  0  0
  -12.6887   13.9095   64.6692 C   0  0  0  0  0  0  0  0  0  0  0  0
  -12.4890   13.7932   66.1973 C   0  0  0  0  0  0  0  0  0  0  0  0
  -11.1737   14.9518   69.6698 C   0  0  0  0  0  0  0  0  0  0  0  0
  -11.5234   13.6329   68.9953 C   0  0  2  0  0  0  0  0  0  0  0  0
   -9.4643   11.5527   65.8328 N   0  0  0  0  0  0  0  0  0  0  0  0
   -9.3050   10.8333   64.7222 N   0  0  0  0  0  0  0  0  0  0  0  0
  -10.3381   11.1124   63.9031 N   0  0  0  0  0  0  0  0  0  0  0  0
  -11.1930   13.1774   66.5956 N   0  0  0  0  0  0  0  0  0  0  0  0
  -11.3303   12.4917   69.8417 N   0  0  0  0  0  0  0  0  0  0  0  0
  -12.8137   11.0798   68.7512 O   0  0  0  0  0  0  0  0  0  0  0  0
   -9.3702   13.3584   68.0491 O   0  0  0  0  0  0  0  0  0  0  0  0
  -10.9754    6.9337   73.6413 Cl  0  0  0  0  0  0  0  0  0  0  0  0
   -9.0955   10.2609   69.8535 Cl  0  0  0  0  0  0  0  0  0  0  0  0
  1  2  2  0
  1  3  1  0
  2  5  1  0
  3  6  2  0
  4  7  2  0
  4  9  1  0
  5 10  2  0
  6 10  1  0
  7 11  1  0
  8 11  2  0
  8 12  1  0
  9 12  2  0
  9 15  1  0
 10 20  1  0
 11 29  1  0
 12 30  1  0
 13 14  2  0
 13 17  1  0
 13 24  1  0
 14 22  1  0
 14 25  1  0
 15 26  1  0
 15 27  2  0
 16 21  1  0
 16 25  1  0
 16 28  2  0
 17 18  1  0
 18 19  1  0
 19 25  1  0
 21 20  1  1
 21 26  1  0
 22 23  2  0
 23 24  1  0
M  END
>  <idnumber>  (98) 
Z1204685911

>  <Chemgauss4>  (98) 
-12.3629856109619

>  <Hetero-Bemis-Murcko>  (98) 
c1ccc(cc1)CC(CN2CCCc3c2nn[nH]3)NCc4ccccc4

>  <MW>  (98) 
444.322

>  <HBD>  (98) 
2

>  <HBA>  (98) 
4

>  <RotBonds>  (98) 
5

>  <XLogP>  (98) 
3.47300004959106

>  <sLogP>  (98) 
3.432

>  <TPSA>  (98) 
90.9800033569336

>  <FSP3>  (98) 
0.238

>  <QED>  (98) 
0.631

$$$$
Z2612013749
     RDKit          3D

 24 26  0  0  1  0  0  0  0  0999 V2000
  -13.9977   14.6668   71.9158 C   0  0  0  0  0  0  0  0  0  0  0  0
  -13.6863   14.8847   73.2606 C   0  0  0  0  0  0  0  0  0  0  0  0
  -11.5534   15.8788   72.6540 C   0  0  0  0  0  0  0  0  0  0  0  0
  -13.0873   15.0561   70.9430 C   0  0  0  0  0  0  0  0  0  0  0  0
  -11.8720   15.6589   71.3234 C   0  0  0  0  0  0  0  0  0  0  0  0
  -12.4733   15.4866   73.6266 C   0  0  0  0  0  0  0  0  0  0  0  0
  -11.6657   11.6725   68.9059 C   0  0  0  0  0  0  0  0  0  0  0  0
  -11.0264   15.9919   70.1175 C   0  0  0  0  0  0  0  0  0  0  0  0
  -13.1800   14.9349   69.4537 C   0  0  1  0  0  0  0  0  0  0  0  0
  -11.8809   15.5425   68.9406 C   0  0  2  0  0  0  0  0  0  0  0  0
  -12.2081   14.0958   68.6606 C   0  0  1  0  0  0  0  0  0  0  0  0
  -11.1142    6.3830   69.4391 C   0  0  0  0  0  0  0  0  0  0  0  0
   -9.1155    9.4282   72.1720 C   0  0  0  0  0  0  0  0  0  0  0  0
  -13.1490    7.4774   71.7079 C   0  0  0  0  0  0  0  0  0  0  0  0
  -13.2298    9.9250   71.2570 C   0  0  0  0  0  0  0  0  0  0  0  0
  -10.6569    7.1701   70.6631 C   0  0  0  0  0  0  0  0  0  0  0  0
  -10.6325    9.3342   72.0406 C   0  0  0  0  0  0  0  0  0  0  0  0
  -10.8184    9.3976   69.4635 C   0  0  0  0  0  0  0  0  0  0  0  0
  -11.1576    8.6359   70.7623 C   0  0  0  0  0  0  0  0  0  0  0  0
  -11.4668   13.0062   69.2524 N   0  0  0  0  0  0  0  0  0  0  0  0
  -10.8208   10.8269   69.6262 N   0  0  0  0  0  0  0  0  0  0  0  0
  -12.6616    8.6003   70.8401 N   0  0  0  0  0  0  0  0  0  0  0  0
  -12.4813   11.2845   68.0705 O   0  0  0  0  0  0  0  0  0  0  0  0
  -12.1957   15.6839   74.9225 F   0  0  0  0  0  0  0  0  0  0  0  0
  1  2  2  0
  1  4  1  0
  2  6  1  0
  3  5  1  0
  3  6  2  0
  4  5  2  0
  9  4  1  1
  5  8  1  0
  6 24  1  0
  7 20  1  0
  7 21  1  0
  7 23  2  0
 10  8  1  1
  9 10  1  0
  9 11  1  0
 10 11  1  0
 11 20  1  1
 12 16  1  0
 13 17  1  0
 14 22  1  0
 15 22  1  0
 16 19  1  0
 17 19  1  0
 18 19  1  0
 18 21  1  0
 19 22  1  0
M  CHG  1  22   1
M  END
>  <idnumber>  (99) 
Z2612013749

>  <Chemgauss4>  (99) 
-12.4987707138062

>  <Hetero-Bemis-Murcko>  (99) 
c1ccc2c(c1)CC3C2C3

>  <MW>  (99) 
333.451

>  <HBD>  (99) 
2

>  <HBA>  (99) 
2

>  <RotBonds>  (99) 
6

>  <XLogP>  (99) 
2.86599969863892

>  <sLogP>  (99) 
2.883

>  <TPSA>  (99) 
45.569995880127

>  <FSP3>  (99) 
0.632

>  <QED>  (99) 
0.841

$$$$
s_2230____16632784____14593732
     RDKit          3D

 24 25  0  0  1  0  0  0  0  0999 V2000
  -10.4255   13.0229   66.4966 C   0  0  0  0  0  0  0  0  0  0  0  0
  -12.4167   14.3513   66.1691 C   0  0  0  0  0  0  0  0  0  0  0  0
  -13.4547   13.8270   71.4797 C   0  0  0  0  0  0  0  0  0  0  0  0
  -11.4392   15.1366   71.2354 C   0  0  0  0  0  0  0  0  0  0  0  0
  -10.5104   12.5708   65.1798 C   0  0  0  0  0  0  0  0  0  0  0  0
  -12.5017   13.8993   64.8522 C   0  0  0  0  0  0  0  0  0  0  0  0
  -13.7055   14.4418   72.7064 C   0  0  0  0  0  0  0  0  0  0  0  0
  -11.6900   15.7514   72.4621 C   0  0  0  0  0  0  0  0  0  0  0  0
  -11.3787   13.9130   66.9913 C   0  0  0  0  0  0  0  0  0  0  0  0
  -12.3215   14.1744   70.7442 C   0  0  0  0  0  0  0  0  0  0  0  0
  -11.5485   13.0090   64.3576 C   0  0  0  0  0  0  0  0  0  0  0  0
  -12.8231   15.4040   73.1976 C   0  0  0  0  0  0  0  0  0  0  0  0
   -9.9562    6.1340   73.5890 C   0  0  0  0  0  0  0  0  0  0  0  0
  -11.2868   14.4037   68.4175 C   0  0  0  0  0  0  0  0  0  0  0  0
  -11.0048    7.1513   73.1684 C   0  0  0  0  0  0  0  0  0  0  0  0
  -10.4867    8.0624   72.0551 C   0  0  0  0  0  0  0  0  0  0  0  0
  -11.5623    9.0584   71.6068 C   0  0  0  0  0  0  0  0  0  0  0  0
  -11.9720   11.1934   70.3481 C   0  0  0  0  0  0  0  0  0  0  0  0
  -12.0490   13.5078   69.4120 C   0  0  1  0  0  0  0  0  0  0  0  0
  -11.0755    9.9643   70.4683 C   0  0  2  0  0  0  0  0  0  0  0  0
  -11.2751   12.2469   69.5661 N   0  0  0  0  0  0  0  0  0  0  0  0
  -11.1243    9.2183   69.2535 O   0  0  0  0  0  0  0  0  0  0  0  0
  -11.6286   12.5771   63.0922 F   0  0  0  0  0  0  0  0  0  0  0  0
  -13.0653   15.9964   74.3743 F   0  0  0  0  0  0  0  0  0  0  0  0
  1  5  2  0
  1  9  1  0
  2  6  1  0
  2  9  2  0
  3  7  2  0
  3 10  1  0
  4  8  1  0
  4 10  2  0
  5 11  1  0
  6 11  2  0
  7 12  1  0
  8 12  2  0
  9 14  1  0
 10 19  1  0
 11 23  1  0
 12 24  1  0
 13 15  1  0
 19 14  1  6
 15 16  1  0
 16 17  1  0
 17 20  1  0
 18 20  1  0
 18 21  1  0
 19 21  1  0
 20 22  1  6
M  CHG  1  21   1
M  END
>  <idnumber>  (100) 
s_2230____16632784____14593732

>  <Chemgauss4>  (100) 
-12.2742977142334

>  <Hetero-Bemis-Murcko>  (100) 
c1ccc(cc1)CCc2ccccc2

>  <MW>  (100) 
333.422

>  <HBD>  (100) 
2

>  <HBA>  (100) 
2

>  <RotBonds>  (100) 
9

>  <XLogP>  (100) 
4.94500064849854

>  <sLogP>  (100) 
4.389

>  <TPSA>  (100) 
36.8400001525879

>  <FSP3>  (100) 
0.4

>  <QED>  (100) 
0.713

$$$$
