Z1738108262
  -OEChem-04242015583D

 58 60  0     1  0  0  0  0  0999 V2000
  -11.9236   12.9034   64.6323 C   0  0  0  0  0  0  0  0  0  0  0  0
  -13.0492   16.1003   73.2159 C   0  0  0  0  0  0  0  0  0  0  0  0
  -10.8734   12.5071   65.4603 C   0  0  0  0  0  0  0  0  0  0  0  0
  -12.8444   13.8512   65.0789 C   0  0  0  0  0  0  0  0  0  0  0  0
  -13.9275   15.0852   72.8370 C   0  0  0  0  0  0  0  0  0  0  0  0
  -11.9221   16.3729   72.4405 C   0  0  0  0  0  0  0  0  0  0  0  0
  -10.7441   13.0584   66.7350 C   0  0  0  0  0  0  0  0  0  0  0  0
  -12.7152   14.4025   66.3536 C   0  0  0  0  0  0  0  0  0  0  0  0
  -13.6788   14.3425   71.6828 C   0  0  0  0  0  0  0  0  0  0  0  0
  -11.6734   15.6302   71.2863 C   0  0  0  0  0  0  0  0  0  0  0  0
  -11.6650   14.0061   67.1817 C   0  0  0  0  0  0  0  0  0  0  0  0
  -12.5517   14.6149   70.9074 C   0  0  0  0  0  0  0  0  0  0  0  0
  -11.3603    7.6984   71.0031 C   0  0  0  0  0  0  0  0  0  0  0  0
  -11.6889   11.4396   69.2180 C   0  0  0  0  0  0  0  0  0  0  0  0
  -10.1638    6.6563   67.5199 C   0  0  0  0  0  0  0  0  0  0  0  0
  -10.5579    7.9304   66.7868 C   0  0  0  0  0  0  0  0  0  0  0  0
  -10.8426    6.5760   68.8806 C   0  0  0  0  0  0  0  0  0  0  0  0
  -10.2756    9.1663   67.6254 C   0  0  0  0  0  0  0  0  0  0  0  0
  -10.5802    7.8179   69.7328 C   0  0  1  0  0  0  0  0  0  0  0  0
  -11.5257   14.6038   68.5633 C   0  0  0  0  0  0  0  0  0  0  0  0
  -10.8128   10.3325   69.7481 C   0  0  0  0  0  0  0  0  0  0  0  0
  -12.2801   13.8062   69.6504 C   0  0  1  0  0  0  0  0  0  0  0  0
  -12.6748    7.5625   70.8923 N   0  0  0  0  0  0  0  0  0  0  0  0
  -11.5468   12.6022   69.9607 N   0  0  0  0  0  0  0  0  0  0  0  0
  -10.7295    7.7312   72.1689 N   0  3  0  0  0  0  0  0  0  0  0  0
  -10.9905    9.0597   68.9560 N   0  3  1  0  0  0  0  0  0  0  0  0
  -12.4285   11.3075   68.2465 O   0  0  0  0  0  0  0  0  0  0  0  0
  -11.4771    7.6185   73.3210 O   0  0  0  0  0  0  0  0  0  0  0  0
  -12.0233   12.4750   63.6392 H   0  0  0  0  0  0  0  0  0  0  0  0
  -13.2437   16.6795   74.1139 H   0  0  0  0  0  0  0  0  0  0  0  0
  -10.1557   11.7699   65.1123 H   0  0  0  0  0  0  0  0  0  0  0  0
  -13.6615   14.1608   64.4341 H   0  0  0  0  0  0  0  0  0  0  0  0
  -14.8057   14.8736   73.4400 H   0  0  0  0  0  0  0  0  0  0  0  0
  -11.2386   17.1639   72.7345 H   0  0  0  0  0  0  0  0  0  0  0  0
   -9.9229   12.7434   67.3734 H   0  0  0  0  0  0  0  0  0  0  0  0
  -13.4374   15.1402   66.6932 H   0  0  0  0  0  0  0  0  0  0  0  0
  -14.3686   13.5532   71.3955 H   0  0  0  0  0  0  0  0  0  0  0  0
  -10.7927   15.8494   70.6884 H   0  0  0  0  0  0  0  0  0  0  0  0
  -10.4349    5.7821   66.9174 H   0  0  0  0  0  0  0  0  0  0  0  0
   -9.0749    6.6297   67.6504 H   0  0  0  0  0  0  0  0  0  0  0  0
  -10.0057    7.9946   65.8426 H   0  0  0  0  0  0  0  0  0  0  0  0
  -11.6236    7.8947   66.5285 H   0  0  0  0  0  0  0  0  0  0  0  0
  -11.9232    6.4375   68.7430 H   0  0  0  0  0  0  0  0  0  0  0  0
  -10.4855    5.6831   69.4089 H   0  0  0  0  0  0  0  0  0  0  0  0
   -9.2058    9.2831   67.8324 H   0  0  0  0  0  0  0  0  0  0  0  0
  -10.6509   10.0638   67.1229 H   0  0  0  0  0  0  0  0  0  0  0  0
   -9.5318    7.9221   69.9660 H   0  0  0  0  0  0  0  0  0  0  0  0
  -11.9117   15.6320   68.5205 H   0  0  0  0  0  0  0  0  0  0  0  0
  -10.4618   14.7037   68.8161 H   0  0  0  0  0  0  0  0  0  0  0  0
  -11.0726   10.1021   70.7850 H   0  0  0  0  0  0  0  0  0  0  0  0
   -9.7584   10.6123   69.6727 H   0  0  0  0  0  0  0  0  0  0  0  0
  -13.2425   13.4798   69.2358 H   0  0  0  0  0  0  0  0  0  0  0  0
  -13.1131    7.5430   69.9781 H   0  0  0  0  0  0  0  0  0  0  0  0
  -13.2672    7.4762   71.7107 H   0  0  0  0  0  0  0  0  0  0  0  0
  -10.9266   12.6111   70.7653 H   0  0  0  0  0  0  0  0  0  0  0  0
   -9.7265    7.8350   72.2650 H   0  0  0  0  0  0  0  0  0  0  0  0
  -11.9960    8.9792   68.7537 H   0  0  0  0  0  0  0  0  0  0  0  0
  -10.7886    7.6715   74.0053 H   0  0  0  0  0  0  0  0  0  0  0  0
  1  3  2  0  0  0  0
  1  4  1  0  0  0  0
  2  5  2  0  0  0  0
  2  6  1  0  0  0  0
  3  7  1  0  0  0  0
  4  8  2  0  0  0  0
  5  9  1  0  0  0  0
  6 10  2  0  0  0  0
  7 11  2  0  0  0  0
  8 11  1  0  0  0  0
  9 12  2  0  0  0  0
 10 12  1  0  0  0  0
 11 20  1  0  0  0  0
 12 22  1  0  0  0  0
 13 19  1  6  0  0  0
 13 23  1  0  0  0  0
 13 25  2  0  0  0  0
 14 21  1  0  0  0  0
 14 24  1  0  0  0  0
 14 27  2  0  0  0  0
 15 16  1  0  0  0  0
 15 17  1  0  0  0  0
 16 18  1  0  0  0  0
 17 19  1  0  0  0  0
 18 26  1  0  0  0  0
 19 26  1  0  0  0  0
 20 22  1  6  0  0  0
 21 26  1  6  0  0  0
 22 24  1  0  0  0  0
 25 28  1  0  0  0  0
  1 29  1  0  0  0  0
  2 30  1  0  0  0  0
  3 31  1  0  0  0  0
  4 32  1  0  0  0  0
  5 33  1  0  0  0  0
  6 34  1  0  0  0  0
  7 35  1  0  0  0  0
  8 36  1  0  0  0  0
  9 37  1  0  0  0  0
 10 38  1  0  0  0  0
 15 39  1  0  0  0  0
 15 40  1  0  0  0  0
 16 41  1  0  0  0  0
 16 42  1  0  0  0  0
 17 43  1  0  0  0  0
 17 44  1  0  0  0  0
 18 45  1  0  0  0  0
 18 46  1  0  0  0  0
 19 47  1  0  0  0  0
 20 48  1  0  0  0  0
 20 49  1  0  0  0  0
 21 50  1  0  0  0  0
 21 51  1  0  0  0  0
 22 52  1  0  0  0  0
 23 53  1  0  0  0  0
 23 54  1  0  0  0  0
 24 55  1  0  0  0  0
 25 56  1  0  0  0  0
 26 57  1  0  0  0  0
 28 58  1  0  0  0  0
M  CHG  2  25   1  26   1
M  END
>  <idnumber>
Z1738108262

>  <Chemgauss4>
-14.8626346588135

>  <Hetero-Bemis-Murcko>
c1ccc(cc1)CC(c2ccccc2)NCC[NH+]3CCCCC3

>  <Hetero-Bemis-Murcko>
c1ccc(cc1)CC(c2ccccc2)NCC[NH+]3CCCCC3

>  <MW>
380.492

>  <HBD>
3

>  <HBA>
4

>  <RotBonds>
7

>  <XLogP>
3.25999999046326

>  <sLogP>
2.688

>  <TPSA>
93.7600021362305

>  <FSP3>
0.364

>  <QED>
0.298

$$$$
Z1941525529
  -OEChem-04242015583D

 53 57  0     1  0  0  0  0  0999 V2000
   -9.0566    7.2677   73.2282 C   0  0  0  0  0  0  0  0  0  0  0  0
  -10.1692    6.5886   73.7159 C   0  0  0  0  0  0  0  0  0  0  0  0
  -10.8487   12.0365   63.3160 C   0  0  0  0  0  0  0  0  0  0  0  0
  -12.0278   12.7778   63.2096 C   0  0  0  0  0  0  0  0  0  0  0  0
   -9.2230    8.3620   72.3789 C   0  0  0  0  0  0  0  0  0  0  0  0
  -11.4525    7.0013   73.3561 C   0  0  0  0  0  0  0  0  0  0  0  0
  -13.0070   13.9746   71.9244 C   0  0  0  0  0  0  0  0  0  0  0  0
  -11.7207   15.9675   71.4658 C   0  0  0  0  0  0  0  0  0  0  0  0
  -10.1917   11.8985   64.5452 C   0  0  0  0  0  0  0  0  0  0  0  0
  -12.5927   13.4069   64.3240 C   0  0  0  0  0  0  0  0  0  0  0  0
  -12.9989   14.2823   73.2848 C   0  0  0  0  0  0  0  0  0  0  0  0
  -11.7126   16.2754   72.8263 C   0  0  0  0  0  0  0  0  0  0  0  0
  -10.6933    9.8906   71.1525 C   0  0  0  0  0  0  0  0  0  0  0  0
  -13.0892    9.6241   71.2804 C   0  0  0  0  0  0  0  0  0  0  0  0
  -10.5072    8.7912   72.0063 C   0  0  0  0  0  0  0  0  0  0  0  0
  -11.6387    8.1006   72.5022 C   0  0  0  0  0  0  0  0  0  0  0  0
  -11.9766   10.3032   70.7927 C   0  0  0  0  0  0  0  0  0  0  0  0
  -12.3678   14.8171   71.0149 C   0  0  0  0  0  0  0  0  0  0  0  0
  -10.7451   12.5240   65.6751 C   0  0  0  0  0  0  0  0  0  0  0  0
  -11.9212   13.2559   65.5377 C   0  0  0  0  0  0  0  0  0  0  0  0
  -12.3517   15.4327   73.7358 C   0  0  0  0  0  0  0  0  0  0  0  0
  -12.9229    8.5298   72.1297 C   0  0  0  0  0  0  0  0  0  0  0  0
  -11.1894   13.2712   67.6255 C   0  0  0  0  0  0  0  0  0  0  0  0
  -12.1514   11.4445   69.9081 C   0  0  0  0  0  0  0  0  0  0  0  0
  -12.3770   14.4840   69.5403 C   0  0  0  0  0  0  0  0  0  0  0  0
  -11.1784   13.6111   69.1061 C   0  0  1  0  0  0  0  0  0  0  0  0
  -10.3056   12.5447   66.9789 N   0  0  0  0  0  0  0  0  0  0  0  0
  -12.1820   13.7223   66.8007 N   0  0  0  0  0  0  0  0  0  0  0  0
  -11.1391   12.4111   69.9107 N   0  0  0  0  0  0  0  0  0  0  0  0
  -13.1721   11.5475   69.2050 O   0  0  0  0  0  0  0  0  0  0  0  0
  -12.3451   15.7335   75.0632 O   0  0  0  0  0  0  0  0  0  0  0  0
  -14.0441    7.8951   72.5833 O   0  0  0  0  0  0  0  0  0  0  0  0
   -8.0577    6.9465   73.5081 H   0  0  0  0  0  0  0  0  0  0  0  0
  -10.0390    5.7361   74.3763 H   0  0  0  0  0  0  0  0  0  0  0  0
  -10.4344   11.5587   62.4318 H   0  0  0  0  0  0  0  0  0  0  0  0
  -12.5157   12.8692   62.2422 H   0  0  0  0  0  0  0  0  0  0  0  0
   -8.3385    8.8772   72.0096 H   0  0  0  0  0  0  0  0  0  0  0  0
  -12.3007    6.4485   73.7541 H   0  0  0  0  0  0  0  0  0  0  0  0
  -13.5136   13.0762   71.5819 H   0  0  0  0  0  0  0  0  0  0  0  0
  -11.2199   16.6299   70.7643 H   0  0  0  0  0  0  0  0  0  0  0  0
   -9.2767   11.3194   64.6171 H   0  0  0  0  0  0  0  0  0  0  0  0
  -13.5082   13.9817   64.2435 H   0  0  0  0  0  0  0  0  0  0  0  0
  -13.4989   13.6221   73.9885 H   0  0  0  0  0  0  0  0  0  0  0  0
  -11.2071   17.1730   73.1711 H   0  0  0  0  0  0  0  0  0  0  0  0
   -9.8301   10.4300   70.7651 H   0  0  0  0  0  0  0  0  0  0  0  0
  -14.0909    9.9439   71.0022 H   0  0  0  0  0  0  0  0  0  0  0  0
  -12.3669   15.4329   68.9857 H   0  0  0  0  0  0  0  0  0  0  0  0
  -13.3288   14.0041   69.2767 H   0  0  0  0  0  0  0  0  0  0  0  0
  -10.2530   14.1580   69.3274 H   0  0  0  0  0  0  0  0  0  0  0  0
  -12.9696   14.2966   67.0708 H   0  0  0  0  0  0  0  0  0  0  0  0
  -10.3577   12.3096   70.5501 H   0  0  0  0  0  0  0  0  0  0  0  0
  -11.8583   16.5586   75.2186 H   0  0  0  0  0  0  0  0  0  0  0  0
  -14.8357    8.3249   72.2264 H   0  0  0  0  0  0  0  0  0  0  0  0
  1  2  1  0  0  0  0
  1  5  2  0  0  0  0
  2  6  2  0  0  0  0
  3  4  2  0  0  0  0
  3  9  1  0  0  0  0
  4 10  1  0  0  0  0
  5 15  1  0  0  0  0
  6 16  1  0  0  0  0
  7 11  1  0  0  0  0
  7 18  2  0  0  0  0
  8 12  2  0  0  0  0
  8 18  1  0  0  0  0
  9 19  2  0  0  0  0
 10 20  2  0  0  0  0
 11 21  2  0  0  0  0
 12 21  1  0  0  0  0
 13 15  2  0  0  0  0
 13 17  1  0  0  0  0
 14 17  2  0  0  0  0
 14 22  1  0  0  0  0
 15 16  1  0  0  0  0
 16 22  2  0  0  0  0
 17 24  1  0  0  0  0
 18 25  1  0  0  0  0
 19 20  1  0  0  0  0
 19 27  1  0  0  0  0
 20 28  1  0  0  0  0
 21 31  1  0  0  0  0
 22 32  1  0  0  0  0
 23 26  1  0  0  0  0
 23 27  2  0  0  0  0
 23 28  1  0  0  0  0
 24 29  1  0  0  0  0
 24 30  2  0  0  0  0
 25 26  1  6  0  0  0
 26 29  1  0  0  0  0
  1 33  1  0  0  0  0
  2 34  1  0  0  0  0
  3 35  1  0  0  0  0
  4 36  1  0  0  0  0
  5 37  1  0  0  0  0
  6 38  1  0  0  0  0
  7 39  1  0  0  0  0
  8 40  1  0  0  0  0
  9 41  1  0  0  0  0
 10 42  1  0  0  0  0
 11 43  1  0  0  0  0
 12 44  1  0  0  0  0
 13 45  1  0  0  0  0
 14 46  1  0  0  0  0
 25 47  1  0  0  0  0
 25 48  1  0  0  0  0
 26 49  1  0  0  0  0
 28 50  1  0  0  0  0
 29 51  1  0  0  0  0
 31 52  1  0  0  0  0
 32 53  1  0  0  0  0
M  END
>  <idnumber>
Z1941525529

>  <Chemgauss4>
-14.8205289840698

>  <Hetero-Bemis-Murcko>
c1ccc(cc1)CC(c2[nH]c3ccccc3n2)NCc4ccc5ccccc5c4

>  <Hetero-Bemis-Murcko>
c1ccc(cc1)CC(c2[nH]c3ccccc3n2)NCc4ccc5ccccc5c4

>  <MW>
423.472

>  <HBD>
4

>  <HBA>
4

>  <RotBonds>
5

>  <XLogP>
3.74900031089783

>  <sLogP>
4.841

>  <TPSA>
98.239990234375

>  <FSP3>
0.077

>  <QED>
0.325

$$$$
Z2365015966
  -OEChem-04242015583D

 52 54  0     1  0  0  0  0  0999 V2000
  -13.0066   16.1749   73.3302 C   0  0  0  0  0  0  0  0  0  0  0  0
  -13.8739   15.1383   72.9857 C   0  0  0  0  0  0  0  0  0  0  0  0
  -11.8923   16.4452   72.5357 C   0  0  0  0  0  0  0  0  0  0  0  0
  -13.6269   14.3718   71.8468 C   0  0  0  0  0  0  0  0  0  0  0  0
  -11.6454   15.6787   71.3968 C   0  0  0  0  0  0  0  0  0  0  0  0
  -10.7272   13.0136   66.8973 C   0  0  0  0  0  0  0  0  0  0  0  0
  -12.7232   14.3178   66.5069 C   0  0  0  0  0  0  0  0  0  0  0  0
  -10.8612   12.4312   65.6370 C   0  0  0  0  0  0  0  0  0  0  0  0
  -12.8571   13.7354   65.2465 C   0  0  0  0  0  0  0  0  0  0  0  0
  -11.6582   13.9569   67.3323 C   0  0  0  0  0  0  0  0  0  0  0  0
  -12.5127   14.6419   71.0523 C   0  0  0  0  0  0  0  0  0  0  0  0
  -11.9261   12.7921   64.8116 C   0  0  0  0  0  0  0  0  0  0  0  0
  -10.7346   10.3743   69.9673 C   0  0  0  0  0  0  0  0  0  0  0  0
  -11.6150   11.4438   69.4387 C   0  0  0  0  0  0  0  0  0  0  0  0
  -10.6482    8.4741   71.6391 C   0  0  0  0  0  0  0  0  0  0  0  0
  -12.6595    9.7866   71.4189 C   0  0  0  0  0  0  0  0  0  0  0  0
  -11.6042    8.1286   72.7838 C   0  0  1  0  0  0  0  0  0  0  0  0
  -12.9602    8.5099   72.1857 C   0  0  1  0  0  0  0  0  0  0  0  0
  -11.5097    6.6768   73.2216 C   0  0  0  0  0  0  0  0  0  0  0  0
  -11.5125   14.5896   68.6975 C   0  0  0  0  0  0  0  0  0  0  0  0
  -12.2430   13.8074   69.8118 C   0  0  1  0  0  0  0  0  0  0  0  0
  -11.2947    9.5896   70.9489 N   0  0  0  0  0  0  0  0  0  0  0  0
  -11.4876   12.6204   70.1428 N   0  0  0  0  0  0  0  0  0  0  0  0
  -13.9724    8.7411   73.2316 N   0  3  0  0  0  0  0  0  0  0  0  0
   -9.6131   10.2991   69.4868 O   0  0  0  0  0  0  0  0  0  0  0  0
  -12.3411   11.2261   68.4809 O   0  0  0  0  0  0  0  0  0  0  0  0
  -12.0910   12.0736   63.2568 Cl  0  0  0  0  0  0  0  0  0  0  0  0
  -13.1997   16.7725   74.2163 H   0  0  0  0  0  0  0  0  0  0  0  0
  -14.7421   14.9284   73.6035 H   0  0  0  0  0  0  0  0  0  0  0  0
  -11.2175   17.2529   72.8030 H   0  0  0  0  0  0  0  0  0  0  0  0
  -14.3080   13.5659   71.5862 H   0  0  0  0  0  0  0  0  0  0  0  0
  -10.7747   15.8964   70.7838 H   0  0  0  0  0  0  0  0  0  0  0  0
   -9.8948   12.7270   67.5347 H   0  0  0  0  0  0  0  0  0  0  0  0
  -13.4527   15.0521   66.8382 H   0  0  0  0  0  0  0  0  0  0  0  0
  -10.1279   11.6980   65.3114 H   0  0  0  0  0  0  0  0  0  0  0  0
  -13.6921   14.0263   64.6142 H   0  0  0  0  0  0  0  0  0  0  0  0
   -9.6548    8.7649   71.9943 H   0  0  0  0  0  0  0  0  0  0  0  0
  -10.5434    7.6537   70.9200 H   0  0  0  0  0  0  0  0  0  0  0  0
  -13.3372    9.9579   70.5769 H   0  0  0  0  0  0  0  0  0  0  0  0
  -12.6568   10.6772   72.0581 H   0  0  0  0  0  0  0  0  0  0  0  0
  -11.3723    8.7784   73.6389 H   0  0  0  0  0  0  0  0  0  0  0  0
  -13.3501    7.7301   71.5207 H   0  0  0  0  0  0  0  0  0  0  0  0
  -11.7372    6.0145   72.3842 H   0  0  0  0  0  0  0  0  0  0  0  0
  -12.2191    6.4788   74.0273 H   0  0  0  0  0  0  0  0  0  0  0  0
  -10.5025    6.4554   73.5796 H   0  0  0  0  0  0  0  0  0  0  0  0
  -11.9142   15.6107   68.6346 H   0  0  0  0  0  0  0  0  0  0  0  0
  -10.4475   14.7109   68.9358 H   0  0  0  0  0  0  0  0  0  0  0  0
  -13.2049   13.4571   69.4162 H   0  0  0  0  0  0  0  0  0  0  0  0
  -10.8386   12.6555   70.9236 H   0  0  0  0  0  0  0  0  0  0  0  0
  -14.8809    9.0028   72.8252 H   0  0  0  0  0  0  0  0  0  0  0  0
  -13.6896    9.4993   73.8676 H   0  0  0  0  0  0  0  0  0  0  0  0
  -14.1220    7.8987   73.8036 H   0  0  0  0  0  0  0  0  0  0  0  0
  1  2  2  0  0  0  0
  1  3  1  0  0  0  0
  2  4  1  0  0  0  0
  3  5  2  0  0  0  0
  4 11  2  0  0  0  0
  5 11  1  0  0  0  0
  6  8  1  0  0  0  0
  6 10  2  0  0  0  0
  7  9  2  0  0  0  0
  7 10  1  0  0  0  0
  8 12  2  0  0  0  0
  9 12  1  0  0  0  0
 10 20  1  0  0  0  0
 11 21  1  0  0  0  0
 12 27  1  0  0  0  0
 13 14  1  0  0  0  0
 13 22  1  0  0  0  0
 13 25  2  0  0  0  0
 14 23  1  0  0  0  0
 14 26  2  0  0  0  0
 15 17  1  0  0  0  0
 15 22  1  0  0  0  0
 16 18  1  0  0  0  0
 16 22  1  0  0  0  0
 17 18  1  0  0  0  0
 17 19  1  6  0  0  0
 18 24  1  6  0  0  0
 20 21  1  6  0  0  0
 21 23  1  0  0  0  0
  1 28  1  0  0  0  0
  2 29  1  0  0  0  0
  3 30  1  0  0  0  0
  4 31  1  0  0  0  0
  5 32  1  0  0  0  0
  6 33  1  0  0  0  0
  7 34  1  0  0  0  0
  8 35  1  0  0  0  0
  9 36  1  0  0  0  0
 15 37  1  0  0  0  0
 15 38  1  0  0  0  0
 16 39  1  0  0  0  0
 16 40  1  0  0  0  0
 17 41  1  0  0  0  0
 18 42  1  0  0  0  0
 19 43  1  0  0  0  0
 19 44  1  0  0  0  0
 19 45  1  0  0  0  0
 20 46  1  0  0  0  0
 20 47  1  0  0  0  0
 21 48  1  0  0  0  0
 23 49  1  0  0  0  0
 24 50  1  0  0  0  0
 24 51  1  0  0  0  0
 24 52  1  0  0  0  0
M  CHG  1  24   1
M  END
>  <idnumber>
Z2365015966

>  <Chemgauss4>
-14.7378234863281

>  <Hetero-Bemis-Murcko>
c1ccc(cc1)CC(c2ccccc2)NCCN3CCCC3

>  <Hetero-Bemis-Murcko>
c1ccc(cc1)CC(c2ccccc2)NCCN3CCCC3

>  <MW>
385.895

>  <HBD>
2

>  <HBA>
3

>  <RotBonds>
4

>  <XLogP>
2.54199981689453

>  <sLogP>
2.546

>  <TPSA>
77.0499954223633

>  <FSP3>
0.333

>  <QED>
0.794

$$$$
Z3639318998
  -OEChem-04242015583D

 57 59  0     1  0  0  0  0  0999 V2000
  -11.8907   12.1783   64.3942 C   0  0  0  0  0  0  0  0  0  0  0  0
  -12.8227   16.2318   72.6323 C   0  0  0  0  0  0  0  0  0  0  0  0
  -10.8301   11.8530   65.2397 C   0  0  0  0  0  0  0  0  0  0  0  0
  -12.7924   13.1779   64.7593 C   0  0  0  0  0  0  0  0  0  0  0  0
  -13.7192   15.1954   72.3721 C   0  0  0  0  0  0  0  0  0  0  0  0
  -11.7070   16.4107   71.8144 C   0  0  0  0  0  0  0  0  0  0  0  0
  -10.6713   12.5273   66.4504 C   0  0  0  0  0  0  0  0  0  0  0  0
  -12.6336   13.8522   65.9700 C   0  0  0  0  0  0  0  0  0  0  0  0
  -13.5001   14.3379   71.2941 C   0  0  0  0  0  0  0  0  0  0  0  0
  -11.4879   15.5531   70.7363 C   0  0  0  0  0  0  0  0  0  0  0  0
  -11.5730   13.5269   66.8156 C   0  0  0  0  0  0  0  0  0  0  0  0
  -12.3844   14.5167   70.4762 C   0  0  0  0  0  0  0  0  0  0  0  0
  -11.5886   11.1773   69.0989 C   0  0  0  0  0  0  0  0  0  0  0  0
  -11.5810    6.4805   70.4725 C   0  0  0  0  0  0  0  0  0  0  0  0
  -12.6276    6.4244   71.5862 C   0  0  0  0  0  0  0  0  0  0  0  0
  -13.5467    8.8244   71.8208 C   0  0  0  0  0  0  0  0  0  0  0  0
  -10.7173    7.7317   70.4161 C   0  0  0  0  0  0  0  0  0  0  0  0
  -12.1522    9.4049   71.6238 C   0  0  0  0  0  0  0  0  0  0  0  0
  -13.7828    7.3919   71.3407 C   0  0  2  0  0  0  0  0  0  0  0  0
  -11.4016   14.2579   68.1277 C   0  0  0  0  0  0  0  0  0  0  0  0
  -10.7156   10.1174   69.7221 C   0  0  0  0  0  0  0  0  0  0  0  0
  -12.1450   13.5829   69.3020 C   0  0  1  0  0  0  0  0  0  0  0  0
  -11.4199   12.4064   69.7188 N   0  0  0  0  0  0  0  0  0  0  0  0
  -11.5401    8.9955   70.3070 N   0  3  1  0  0  0  0  0  0  0  0  0
  -14.9896    6.8772   72.0612 N   0  3  0  0  0  0  0  0  0  0  0  0
  -12.3473   10.9584   68.1583 O   0  0  0  0  0  0  0  0  0  0  0  0
  -12.0134   11.6541   63.4509 H   0  0  0  0  0  0  0  0  0  0  0  0
  -12.9942   16.9003   73.4710 H   0  0  0  0  0  0  0  0  0  0  0  0
  -10.1272   11.0755   64.9551 H   0  0  0  0  0  0  0  0  0  0  0  0
  -13.6176   13.4322   64.1008 H   0  0  0  0  0  0  0  0  0  0  0  0
  -14.5886   15.0567   73.0082 H   0  0  0  0  0  0  0  0  0  0  0  0
  -11.0094   17.2181   72.0160 H   0  0  0  0  0  0  0  0  0  0  0  0
   -9.8420   12.2670   67.1030 H   0  0  0  0  0  0  0  0  0  0  0  0
  -13.3411   14.6295   66.2463 H   0  0  0  0  0  0  0  0  0  0  0  0
  -14.2039   13.5329   71.0991 H   0  0  0  0  0  0  0  0  0  0  0  0
  -10.6159   15.7000   70.1045 H   0  0  0  0  0  0  0  0  0  0  0  0
  -10.9166    5.6111   70.5955 H   0  0  0  0  0  0  0  0  0  0  0  0
  -12.0775    6.3277   69.5012 H   0  0  0  0  0  0  0  0  0  0  0  0
  -13.0006    5.4068   71.6306 H   0  0  0  0  0  0  0  0  0  0  0  0
  -12.1447    6.6472   72.5310 H   0  0  0  0  0  0  0  0  0  0  0  0
  -13.8183    8.9026   72.8890 H   0  0  0  0  0  0  0  0  0  0  0  0
  -14.2431    9.5103   71.3058 H   0  0  0  0  0  0  0  0  0  0  0  0
  -10.0380    7.8309   71.2846 H   0  0  0  0  0  0  0  0  0  0  0  0
  -10.0774    7.6766   69.5155 H   0  0  0  0  0  0  0  0  0  0  0  0
  -12.2021   10.4912   71.6061 H   0  0  0  0  0  0  0  0  0  0  0  0
  -11.4868    9.0810   72.4198 H   0  0  0  0  0  0  0  0  0  0  0  0
  -14.0872    7.3860   70.2613 H   0  0  0  0  0  0  0  0  0  0  0  0
  -11.7767   15.2816   67.9887 H   0  0  0  0  0  0  0  0  0  0  0  0
  -10.3323   14.3685   68.3511 H   0  0  0  0  0  0  0  0  0  0  0  0
  -10.1255   10.5400   70.5401 H   0  0  0  0  0  0  0  0  0  0  0  0
  -10.0591    9.6735   68.9686 H   0  0  0  0  0  0  0  0  0  0  0  0
  -13.1185   13.2293   68.9387 H   0  0  0  0  0  0  0  0  0  0  0  0
  -10.7849   12.4876   70.5078 H   0  0  0  0  0  0  0  0  0  0  0  0
  -12.2926    8.8269   69.6563 H   0  0  0  0  0  0  0  0  0  0  0  0
  -15.7187    7.5899   72.0770 H   0  0  0  0  0  0  0  0  0  0  0  0
  -14.7463    6.6334   73.0212 H   0  0  0  0  0  0  0  0  0  0  0  0
  -15.3503    6.0469   71.5916 H   0  0  0  0  0  0  0  0  0  0  0  0
  1  3  2  0  0  0  0
  1  4  1  0  0  0  0
  2  5  2  0  0  0  0
  2  6  1  0  0  0  0
  3  7  1  0  0  0  0
  4  8  2  0  0  0  0
  5  9  1  0  0  0  0
  6 10  2  0  0  0  0
  7 11  2  0  0  0  0
  8 11  1  0  0  0  0
  9 12  2  0  0  0  0
 10 12  1  0  0  0  0
 11 20  1  0  0  0  0
 12 22  1  0  0  0  0
 13 21  1  0  0  0  0
 13 23  1  0  0  0  0
 13 26  2  0  0  0  0
 14 15  1  0  0  0  0
 14 17  1  0  0  0  0
 15 19  1  0  0  0  0
 16 18  1  0  0  0  0
 16 19  1  0  0  0  0
 17 24  1  0  0  0  0
 18 24  1  0  0  0  0
 19 25  1  1  0  0  0
 20 22  1  6  0  0  0
 21 24  1  6  0  0  0
 22 23  1  0  0  0  0
  1 27  1  0  0  0  0
  2 28  1  0  0  0  0
  3 29  1  0  0  0  0
  4 30  1  0  0  0  0
  5 31  1  0  0  0  0
  6 32  1  0  0  0  0
  7 33  1  0  0  0  0
  8 34  1  0  0  0  0
  9 35  1  0  0  0  0
 10 36  1  0  0  0  0
 14 37  1  0  0  0  0
 14 38  1  0  0  0  0
 15 39  1  0  0  0  0
 15 40  1  0  0  0  0
 16 41  1  0  0  0  0
 16 42  1  0  0  0  0
 17 43  1  0  0  0  0
 17 44  1  0  0  0  0
 18 45  1  0  0  0  0
 18 46  1  0  0  0  0
 19 47  1  0  0  0  0
 20 48  1  0  0  0  0
 20 49  1  0  0  0  0
 21 50  1  0  0  0  0
 21 51  1  0  0  0  0
 22 52  1  0  0  0  0
 23 53  1  0  0  0  0
 24 54  1  0  0  0  0
 25 55  1  0  0  0  0
 25 56  1  0  0  0  0
 25 57  1  0  0  0  0
M  CHG  2  24   1  25   1
M  END
>  <idnumber>
Z3639318998

>  <Chemgauss4>
-14.6643981933594

>  <Hetero-Bemis-Murcko>
c1ccc(cc1)CC(c2ccccc2)NCC[NH+]3CCCCCC3

>  <Hetero-Bemis-Murcko>
c1ccc(cc1)CC(c2ccccc2)NCC[NH+]3CCCCCC3

>  <MW>
351.494

>  <HBD>
2

>  <HBA>
3

>  <RotBonds>
6

>  <XLogP>
3.32600021362305

>  <sLogP>
2.9

>  <TPSA>
61.1799964904785

>  <FSP3>
0.409

>  <QED>
0.841

$$$$
Z729874608
  -OEChem-04242015583D

 62 65  0     1  0  0  0  0  0999 V2000
   -8.5152    7.1292   66.6745 C   0  0  0  0  0  0  0  0  0  0  0  0
  -11.7220   12.9130   64.5638 C   0  0  0  0  0  0  0  0  0  0  0  0
  -13.1772   16.1024   73.1006 C   0  0  0  0  0  0  0  0  0  0  0  0
   -8.0855    6.6717   67.9201 C   0  0  0  0  0  0  0  0  0  0  0  0
   -9.7295    7.8061   66.5610 C   0  0  0  0  0  0  0  0  0  0  0  0
  -10.7153   12.4989   65.4359 C   0  0  0  0  0  0  0  0  0  0  0  0
  -12.6476   13.8731   64.9728 C   0  0  0  0  0  0  0  0  0  0  0  0
  -14.0529   15.1014   72.6800 C   0  0  0  0  0  0  0  0  0  0  0  0
  -12.0133   16.3604   72.3764 C   0  0  0  0  0  0  0  0  0  0  0  0
   -8.8701    6.8910   69.0523 C   0  0  0  0  0  0  0  0  0  0  0  0
  -10.5142    8.0255   67.6932 C   0  0  0  0  0  0  0  0  0  0  0  0
  -10.6341   13.0446   66.7169 C   0  0  0  0  0  0  0  0  0  0  0  0
  -12.5665   14.4189   66.2539 C   0  0  0  0  0  0  0  0  0  0  0  0
  -13.7645   14.3583   71.5353 C   0  0  0  0  0  0  0  0  0  0  0  0
  -11.7249   15.6172   71.2317 C   0  0  0  0  0  0  0  0  0  0  0  0
  -10.0845    7.5679   68.9389 C   0  0  0  0  0  0  0  0  0  0  0  0
  -11.5598   14.0047   67.1260 C   0  0  0  0  0  0  0  0  0  0  0  0
  -12.6006   14.6162   70.8112 C   0  0  0  0  0  0  0  0  0  0  0  0
  -12.2760    6.3618   71.7905 C   0  0  0  0  0  0  0  0  0  0  0  0
  -11.7109   11.4332   69.1504 C   0  0  0  0  0  0  0  0  0  0  0  0
  -11.9055    6.6183   70.3474 C   0  0  0  0  0  0  0  0  0  0  0  0
  -13.5603    8.5130   71.7541 C   0  0  0  0  0  0  0  0  0  0  0  0
  -12.4472    9.4894   71.4246 C   0  0  0  0  0  0  0  0  0  0  0  0
  -10.9420    7.8076   70.1748 C   0  0  2  0  0  0  0  0  0  0  0  0
  -11.4726   14.5964   68.5144 C   0  0  0  0  0  0  0  0  0  0  0  0
  -10.8754   10.3117   69.7147 C   0  0  0  0  0  0  0  0  0  0  0  0
  -12.2858   13.8071   69.5645 C   0  0  1  0  0  0  0  0  0  0  0  0
  -13.0626    7.3127   72.3913 N   0  0  0  0  0  0  0  0  0  0  0  0
  -11.5846   12.5914   69.9026 N   0  0  0  0  0  0  0  0  0  0  0  0
  -11.7364    9.1320   70.1310 N   0  3  2  0  0  0  0  0  0  0  0  0
  -11.8904    5.3507   72.3784 O   0  0  0  0  0  0  0  0  0  0  0  0
  -12.4089   11.3147   68.1469 O   0  0  0  0  0  0  0  0  0  0  0  0
   -7.9035    6.9595   65.7932 H   0  0  0  0  0  0  0  0  0  0  0  0
  -11.7842   12.4889   63.5659 H   0  0  0  0  0  0  0  0  0  0  0  0
  -13.4026   16.6818   73.9911 H   0  0  0  0  0  0  0  0  0  0  0  0
   -7.1395    6.1455   68.0088 H   0  0  0  0  0  0  0  0  0  0  0  0
  -10.0639    8.1635   65.5915 H   0  0  0  0  0  0  0  0  0  0  0  0
   -9.9938   11.7521   65.1172 H   0  0  0  0  0  0  0  0  0  0  0  0
  -13.4309   14.1966   64.2937 H   0  0  0  0  0  0  0  0  0  0  0  0
  -14.9598   14.9012   73.2431 H   0  0  0  0  0  0  0  0  0  0  0  0
  -11.3319   17.1403   72.7029 H   0  0  0  0  0  0  0  0  0  0  0  0
   -8.5274    6.5308   70.0187 H   0  0  0  0  0  0  0  0  0  0  0  0
  -11.4589    8.5537   67.5952 H   0  0  0  0  0  0  0  0  0  0  0  0
   -9.8465   12.7158   67.3897 H   0  0  0  0  0  0  0  0  0  0  0  0
  -13.2921   15.1662   66.5639 H   0  0  0  0  0  0  0  0  0  0  0  0
  -14.4525   13.5802   71.2152 H   0  0  0  0  0  0  0  0  0  0  0  0
  -10.8157   15.8251   70.6739 H   0  0  0  0  0  0  0  0  0  0  0  0
  -11.4292    5.6932   69.9918 H   0  0  0  0  0  0  0  0  0  0  0  0
  -12.8100    6.7297   69.7375 H   0  0  0  0  0  0  0  0  0  0  0  0
  -14.2454    8.9761   72.4727 H   0  0  0  0  0  0  0  0  0  0  0  0
  -14.1493    8.2427   70.8715 H   0  0  0  0  0  0  0  0  0  0  0  0
  -12.8896   10.4802   71.2710 H   0  0  0  0  0  0  0  0  0  0  0  0
  -11.6937    9.5621   72.2173 H   0  0  0  0  0  0  0  0  0  0  0  0
  -10.2582    7.8979   71.0433 H   0  0  0  0  0  0  0  0  0  0  0  0
  -11.8412   15.6303   68.4581 H   0  0  0  0  0  0  0  0  0  0  0  0
  -10.4195   14.6798   68.8141 H   0  0  0  0  0  0  0  0  0  0  0  0
  -10.3387   10.6459   70.6069 H   0  0  0  0  0  0  0  0  0  0  0  0
  -10.1720    9.9452   68.9619 H   0  0  0  0  0  0  0  0  0  0  0  0
  -13.2337   13.4961   69.1069 H   0  0  0  0  0  0  0  0  0  0  0  0
  -13.3274    7.1532   73.3586 H   0  0  0  0  0  0  0  0  0  0  0  0
  -11.0003   12.5889   70.7337 H   0  0  0  0  0  0  0  0  0  0  0  0
  -12.4574    9.0353   69.4064 H   0  0  0  0  0  0  0  0  0  0  0  0
  1  4  2  0  0  0  0
  1  5  1  0  0  0  0
  2  6  2  0  0  0  0
  2  7  1  0  0  0  0
  3  8  2  0  0  0  0
  3  9  1  0  0  0  0
  4 10  1  0  0  0  0
  5 11  2  0  0  0  0
  6 12  1  0  0  0  0
  7 13  2  0  0  0  0
  8 14  1  0  0  0  0
  9 15  2  0  0  0  0
 10 16  2  0  0  0  0
 11 16  1  0  0  0  0
 12 17  2  0  0  0  0
 13 17  1  0  0  0  0
 14 18  2  0  0  0  0
 15 18  1  0  0  0  0
 16 24  1  1  0  0  0
 17 25  1  0  0  0  0
 18 27  1  0  0  0  0
 19 21  1  0  0  0  0
 19 28  1  0  0  0  0
 19 31  2  0  0  0  0
 20 26  1  0  0  0  0
 20 29  1  0  0  0  0
 20 32  2  0  0  0  0
 21 24  1  0  0  0  0
 22 23  1  0  0  0  0
 22 28  1  0  0  0  0
 23 30  1  0  0  0  0
 24 30  1  0  0  0  0
 25 27  1  6  0  0  0
 26 30  1  6  0  0  0
 27 29  1  0  0  0  0
  1 33  1  0  0  0  0
  2 34  1  0  0  0  0
  3 35  1  0  0  0  0
  4 36  1  0  0  0  0
  5 37  1  0  0  0  0
  6 38  1  0  0  0  0
  7 39  1  0  0  0  0
  8 40  1  0  0  0  0
  9 41  1  0  0  0  0
 10 42  1  0  0  0  0
 11 43  1  0  0  0  0
 12 44  1  0  0  0  0
 13 45  1  0  0  0  0
 14 46  1  0  0  0  0
 15 47  1  0  0  0  0
 21 48  1  0  0  0  0
 21 49  1  0  0  0  0
 22 50  1  0  0  0  0
 22 51  1  0  0  0  0
 23 52  1  0  0  0  0
 23 53  1  0  0  0  0
 24 54  1  0  0  0  0
 25 55  1  0  0  0  0
 25 56  1  0  0  0  0
 26 57  1  0  0  0  0
 26 58  1  0  0  0  0
 27 59  1  0  0  0  0
 28 60  1  0  0  0  0
 29 61  1  0  0  0  0
 30 62  1  0  0  0  0
M  CHG  1  30   1
M  END
>  <idnumber>
Z729874608

>  <Chemgauss4>
-14.5871934890747

>  <Hetero-Bemis-Murcko>
c1ccc(cc1)CC(c2ccccc2)NCC[NH+]3CCNCCC3c4ccccc4

>  <Hetero-Bemis-Murcko>
c1ccc(cc1)CC(c2ccccc2)NCC[NH+]3CCNCCC3c4ccccc4

>  <MW>
427.548

>  <HBD>
2

>  <HBA>
3

>  <RotBonds>
7

>  <XLogP>
3.6230001449585

>  <sLogP>
3.65

>  <TPSA>
62.6399993896484

>  <FSP3>
0.259

>  <QED>
0.605

$$$$
Z2366415884
  -OEChem-04242015583D

 49 51  0     1  0  0  0  0  0999 V2000
  -13.2478   15.9715   73.1640 C   0  0  0  0  0  0  0  0  0  0  0  0
  -14.0417   14.8885   72.7865 C   0  0  0  0  0  0  0  0  0  0  0  0
  -12.1152   16.2993   72.4187 C   0  0  0  0  0  0  0  0  0  0  0  0
  -13.7029   14.1333   71.6638 C   0  0  0  0  0  0  0  0  0  0  0  0
  -11.7765   15.5441   71.2960 C   0  0  0  0  0  0  0  0  0  0  0  0
  -10.5156   12.9193   66.8560 C   0  0  0  0  0  0  0  0  0  0  0  0
  -12.5589   14.1134   66.3701 C   0  0  0  0  0  0  0  0  0  0  0  0
  -10.5620   12.3265   65.5943 C   0  0  0  0  0  0  0  0  0  0  0  0
  -12.6053   13.5206   65.1083 C   0  0  0  0  0  0  0  0  0  0  0  0
  -11.5141   13.8128   67.2440 C   0  0  0  0  0  0  0  0  0  0  0  0
  -12.5703   14.4611   70.9185 C   0  0  0  0  0  0  0  0  0  0  0  0
  -11.6068   12.6272   64.7204 C   0  0  0  0  0  0  0  0  0  0  0  0
  -10.5176   10.2920   69.9366 C   0  0  0  0  0  0  0  0  0  0  0  0
  -11.4303   11.3117   69.3633 C   0  0  0  0  0  0  0  0  0  0  0  0
  -11.3634    8.0240   72.7370 C   0  0  0  0  0  0  0  0  0  0  0  0
  -10.3949    8.4068   71.6239 C   0  0  0  0  0  0  0  0  0  0  0  0
  -12.4561    9.6203   71.3317 C   0  0  0  0  0  0  0  0  0  0  0  0
  -12.7160    8.3460   72.1151 C   0  0  2  0  0  0  0  0  0  0  0  0
  -11.4641   14.4562   68.6110 C   0  0  0  0  0  0  0  0  0  0  0  0
  -12.2007   13.6388   69.6957 C   0  0  1  0  0  0  0  0  0  0  0  0
  -11.0723    9.4799   70.8993 N   0  0  0  0  0  0  0  0  0  0  0  0
  -11.3981   12.4953   70.0662 N   0  0  0  0  0  0  0  0  0  0  0  0
  -13.7467    8.5478   73.1467 N   0  3  0  0  0  0  0  0  0  0  0  0
   -9.3731   10.2770   69.5064 O   0  0  0  0  0  0  0  0  0  0  0  0
  -12.0998   11.0523   68.3752 O   0  0  0  0  0  0  0  0  0  0  0  0
  -11.6499   12.0600   63.5077 F   0  0  0  0  0  0  0  0  0  0  0  0
  -13.5124   16.5602   74.0375 H   0  0  0  0  0  0  0  0  0  0  0  0
  -14.9242   14.6337   73.3661 H   0  0  0  0  0  0  0  0  0  0  0  0
  -11.4975   17.1431   72.7117 H   0  0  0  0  0  0  0  0  0  0  0  0
  -14.3273   13.2910   71.3773 H   0  0  0  0  0  0  0  0  0  0  0  0
  -10.8922   15.8068   70.7214 H   0  0  0  0  0  0  0  0  0  0  0  0
   -9.6980   12.6783   67.5303 H   0  0  0  0  0  0  0  0  0  0  0  0
  -13.3412   14.8086   66.6636 H   0  0  0  0  0  0  0  0  0  0  0  0
   -9.7844   11.6315   65.2919 H   0  0  0  0  0  0  0  0  0  0  0  0
  -13.4187   13.7541   64.4279 H   0  0  0  0  0  0  0  0  0  0  0  0
  -11.2724    6.9722   73.0236 H   0  0  0  0  0  0  0  0  0  0  0  0
  -11.1724    8.6450   73.6209 H   0  0  0  0  0  0  0  0  0  0  0  0
   -9.4247    8.7418   72.0018 H   0  0  0  0  0  0  0  0  0  0  0  0
  -10.2402    7.5773   70.9253 H   0  0  0  0  0  0  0  0  0  0  0  0
  -13.1196    9.7440   70.4703 H   0  0  0  0  0  0  0  0  0  0  0  0
  -12.5114   10.5217   71.9531 H   0  0  0  0  0  0  0  0  0  0  0  0
  -13.0566    7.5354   71.4606 H   0  0  0  0  0  0  0  0  0  0  0  0
  -11.9170   15.4539   68.5249 H   0  0  0  0  0  0  0  0  0  0  0  0
  -10.4190   14.6356   68.8960 H   0  0  0  0  0  0  0  0  0  0  0  0
  -13.1237   13.2360   69.2593 H   0  0  0  0  0  0  0  0  0  0  0  0
  -10.7876   12.5675   70.8751 H   0  0  0  0  0  0  0  0  0  0  0  0
  -14.5367    7.8988   73.0243 H   0  0  0  0  0  0  0  0  0  0  0  0
  -14.1282    9.5040   73.1175 H   0  0  0  0  0  0  0  0  0  0  0  0
  -13.3695    8.3968   74.0929 H   0  0  0  0  0  0  0  0  0  0  0  0
  1  2  2  0  0  0  0
  1  3  1  0  0  0  0
  2  4  1  0  0  0  0
  3  5  2  0  0  0  0
  4 11  2  0  0  0  0
  5 11  1  0  0  0  0
  6  8  1  0  0  0  0
  6 10  2  0  0  0  0
  7  9  2  0  0  0  0
  7 10  1  0  0  0  0
  8 12  2  0  0  0  0
  9 12  1  0  0  0  0
 10 19  1  0  0  0  0
 11 20  1  0  0  0  0
 12 26  1  0  0  0  0
 13 14  1  0  0  0  0
 13 21  1  0  0  0  0
 13 24  2  0  0  0  0
 14 22  1  0  0  0  0
 14 25  2  0  0  0  0
 15 16  1  0  0  0  0
 15 18  1  0  0  0  0
 16 21  1  0  0  0  0
 17 18  1  0  0  0  0
 17 21  1  0  0  0  0
 18 23  1  1  0  0  0
 19 20  1  6  0  0  0
 20 22  1  0  0  0  0
  1 27  1  0  0  0  0
  2 28  1  0  0  0  0
  3 29  1  0  0  0  0
  4 30  1  0  0  0  0
  5 31  1  0  0  0  0
  6 32  1  0  0  0  0
  7 33  1  0  0  0  0
  8 34  1  0  0  0  0
  9 35  1  0  0  0  0
 15 36  1  0  0  0  0
 15 37  1  0  0  0  0
 16 38  1  0  0  0  0
 16 39  1  0  0  0  0
 17 40  1  0  0  0  0
 17 41  1  0  0  0  0
 18 42  1  0  0  0  0
 19 43  1  0  0  0  0
 19 44  1  0  0  0  0
 20 45  1  0  0  0  0
 22 46  1  0  0  0  0
 23 47  1  0  0  0  0
 23 48  1  0  0  0  0
 23 49  1  0  0  0  0
M  CHG  1  23   1
M  END
>  <idnumber>
Z2366415884

>  <Chemgauss4>
-14.4882640838623

>  <Hetero-Bemis-Murcko>
c1ccc(cc1)CC(c2ccccc2)NCCN3CCCC3

>  <Hetero-Bemis-Murcko>
c1ccc(cc1)CC(c2ccccc2)NCCN3CCCC3

>  <MW>
355.413

>  <HBD>
2

>  <HBA>
3

>  <RotBonds>
4

>  <XLogP>
1.80699968338013

>  <sLogP>
1.785

>  <TPSA>
77.0499954223633

>  <FSP3>
0.3

>  <QED>
0.821

$$$$
Z2366415817
  -OEChem-04242015583D

 49 51  0     1  0  0  0  0  0999 V2000
  -13.2478   15.9715   73.1640 C   0  0  0  0  0  0  0  0  0  0  0  0
  -14.0417   14.8885   72.7865 C   0  0  0  0  0  0  0  0  0  0  0  0
  -12.1152   16.2993   72.4187 C   0  0  0  0  0  0  0  0  0  0  0  0
  -13.7029   14.1333   71.6638 C   0  0  0  0  0  0  0  0  0  0  0  0
  -11.7765   15.5441   71.2960 C   0  0  0  0  0  0  0  0  0  0  0  0
  -10.5156   12.9193   66.8560 C   0  0  0  0  0  0  0  0  0  0  0  0
  -12.5589   14.1134   66.3701 C   0  0  0  0  0  0  0  0  0  0  0  0
  -10.5620   12.3265   65.5943 C   0  0  0  0  0  0  0  0  0  0  0  0
  -12.6053   13.5206   65.1083 C   0  0  0  0  0  0  0  0  0  0  0  0
  -11.5141   13.8128   67.2440 C   0  0  0  0  0  0  0  0  0  0  0  0
  -12.5703   14.4611   70.9185 C   0  0  0  0  0  0  0  0  0  0  0  0
  -11.6068   12.6272   64.7204 C   0  0  0  0  0  0  0  0  0  0  0  0
  -10.5176   10.2920   69.9366 C   0  0  0  0  0  0  0  0  0  0  0  0
  -11.4303   11.3117   69.3633 C   0  0  0  0  0  0  0  0  0  0  0  0
  -11.3634    8.0240   72.7370 C   0  0  0  0  0  0  0  0  0  0  0  0
  -10.3949    8.4068   71.6239 C   0  0  0  0  0  0  0  0  0  0  0  0
  -12.4561    9.6203   71.3317 C   0  0  0  0  0  0  0  0  0  0  0  0
  -12.7160    8.3460   72.1151 C   0  0  2  0  0  0  0  0  0  0  0  0
  -11.4641   14.4562   68.6110 C   0  0  0  0  0  0  0  0  0  0  0  0
  -12.2007   13.6388   69.6957 C   0  0  1  0  0  0  0  0  0  0  0  0
  -11.0723    9.4799   70.8993 N   0  0  0  0  0  0  0  0  0  0  0  0
  -11.3981   12.4953   70.0662 N   0  0  0  0  0  0  0  0  0  0  0  0
  -13.7467    8.5478   73.1467 N   0  3  0  0  0  0  0  0  0  0  0  0
   -9.3731   10.2770   69.5064 O   0  0  0  0  0  0  0  0  0  0  0  0
  -12.0998   11.0523   68.3752 O   0  0  0  0  0  0  0  0  0  0  0  0
  -11.6499   12.0600   63.5077 F   0  0  0  0  0  0  0  0  0  0  0  0
  -13.5124   16.5602   74.0375 H   0  0  0  0  0  0  0  0  0  0  0  0
  -14.9242   14.6337   73.3661 H   0  0  0  0  0  0  0  0  0  0  0  0
  -11.4975   17.1431   72.7117 H   0  0  0  0  0  0  0  0  0  0  0  0
  -14.3273   13.2910   71.3773 H   0  0  0  0  0  0  0  0  0  0  0  0
  -10.8922   15.8068   70.7214 H   0  0  0  0  0  0  0  0  0  0  0  0
   -9.6980   12.6783   67.5303 H   0  0  0  0  0  0  0  0  0  0  0  0
  -13.3412   14.8086   66.6636 H   0  0  0  0  0  0  0  0  0  0  0  0
   -9.7844   11.6315   65.2919 H   0  0  0  0  0  0  0  0  0  0  0  0
  -13.4187   13.7541   64.4279 H   0  0  0  0  0  0  0  0  0  0  0  0
  -11.2724    6.9722   73.0236 H   0  0  0  0  0  0  0  0  0  0  0  0
  -11.1724    8.6450   73.6209 H   0  0  0  0  0  0  0  0  0  0  0  0
   -9.4247    8.7418   72.0018 H   0  0  0  0  0  0  0  0  0  0  0  0
  -10.2402    7.5773   70.9253 H   0  0  0  0  0  0  0  0  0  0  0  0
  -13.1196    9.7440   70.4703 H   0  0  0  0  0  0  0  0  0  0  0  0
  -12.5114   10.5217   71.9531 H   0  0  0  0  0  0  0  0  0  0  0  0
  -13.0566    7.5354   71.4606 H   0  0  0  0  0  0  0  0  0  0  0  0
  -11.9170   15.4539   68.5249 H   0  0  0  0  0  0  0  0  0  0  0  0
  -10.4190   14.6356   68.8960 H   0  0  0  0  0  0  0  0  0  0  0  0
  -13.1237   13.2360   69.2593 H   0  0  0  0  0  0  0  0  0  0  0  0
  -10.7876   12.5675   70.8751 H   0  0  0  0  0  0  0  0  0  0  0  0
  -14.5367    7.8988   73.0243 H   0  0  0  0  0  0  0  0  0  0  0  0
  -14.1282    9.5040   73.1175 H   0  0  0  0  0  0  0  0  0  0  0  0
  -13.3695    8.3968   74.0929 H   0  0  0  0  0  0  0  0  0  0  0  0
  1  2  2  0  0  0  0
  1  3  1  0  0  0  0
  2  4  1  0  0  0  0
  3  5  2  0  0  0  0
  4 11  2  0  0  0  0
  5 11  1  0  0  0  0
  6  8  1  0  0  0  0
  6 10  2  0  0  0  0
  7  9  2  0  0  0  0
  7 10  1  0  0  0  0
  8 12  2  0  0  0  0
  9 12  1  0  0  0  0
 10 19  1  0  0  0  0
 11 20  1  0  0  0  0
 12 26  1  0  0  0  0
 13 14  1  0  0  0  0
 13 21  1  0  0  0  0
 13 24  2  0  0  0  0
 14 22  1  0  0  0  0
 14 25  2  0  0  0  0
 15 16  1  0  0  0  0
 15 18  1  0  0  0  0
 16 21  1  0  0  0  0
 17 18  1  0  0  0  0
 17 21  1  0  0  0  0
 18 23  1  0  0  0  0
 19 20  1  6  0  0  0
 20 22  1  0  0  0  0
  1 27  1  0  0  0  0
  2 28  1  0  0  0  0
  3 29  1  0  0  0  0
  4 30  1  0  0  0  0
  5 31  1  0  0  0  0
  6 32  1  0  0  0  0
  7 33  1  0  0  0  0
  8 34  1  0  0  0  0
  9 35  1  0  0  0  0
 15 36  1  0  0  0  0
 15 37  1  0  0  0  0
 16 38  1  0  0  0  0
 16 39  1  0  0  0  0
 17 40  1  0  0  0  0
 17 41  1  0  0  0  0
 18 42  1  6  0  0  0
 19 43  1  0  0  0  0
 19 44  1  0  0  0  0
 20 45  1  0  0  0  0
 22 46  1  0  0  0  0
 23 47  1  0  0  0  0
 23 48  1  0  0  0  0
 23 49  1  0  0  0  0
M  CHG  1  23   1
M  END
>  <idnumber>
Z2366415817

>  <Chemgauss4>
-14.4882640838623

>  <Hetero-Bemis-Murcko>
c1ccc(cc1)CC(c2ccccc2)NCCN3CCCC3

>  <Hetero-Bemis-Murcko>
c1ccc(cc1)CC(c2ccccc2)NCCN3CCCC3

>  <MW>
355.413

>  <HBD>
2

>  <HBA>
3

>  <RotBonds>
4

>  <XLogP>
1.80699968338013

>  <sLogP>
1.785

>  <TPSA>
77.0499954223633

>  <FSP3>
0.3

>  <QED>
0.821

$$$$
Z2445658389
  -OEChem-04242015583D

 51 54  0     1  0  0  0  0  0999 V2000
  -12.8517   16.2265   73.6680 C   0  0  0  0  0  0  0  0  0  0  0  0
  -13.7455   15.2255   73.2878 C   0  0  0  0  0  0  0  0  0  0  0  0
  -11.7707   16.5453   72.8461 C   0  0  0  0  0  0  0  0  0  0  0  0
  -13.5583   14.5432   72.0856 C   0  0  0  0  0  0  0  0  0  0  0  0
  -11.5835   15.8630   71.6440 C   0  0  0  0  0  0  0  0  0  0  0  0
  -12.7301   13.9594   65.5215 C   0  0  0  0  0  0  0  0  0  0  0  0
  -11.4592   13.4577   65.5171 C   0  0  0  0  0  0  0  0  0  0  0  0
  -12.4773   14.8620   71.2637 C   0  0  0  0  0  0  0  0  0  0  0  0
  -11.7967   14.4465   67.4688 C   0  0  0  0  0  0  0  0  0  0  0  0
  -10.7991   10.6709   69.7894 C   0  0  0  0  0  0  0  0  0  0  0  0
  -11.6895   11.7842   69.3809 C   0  0  0  0  0  0  0  0  0  0  0  0
  -11.5429    6.6129   72.6136 C   0  0  0  0  0  0  0  0  0  0  0  0
  -11.2849    7.6520   73.6628 C   0  0  0  0  0  0  0  0  0  0  0  0
  -12.6603   10.0041   71.2839 C   0  0  0  0  0  0  0  0  0  0  0  0
  -10.6205    8.7101   71.3720 C   0  0  0  0  0  0  0  0  0  0  0  0
  -13.0072    8.6581   71.9128 C   0  0  1  0  0  0  0  0  0  0  0  0
  -11.6588    8.0762   72.2591 C   0  0  0  0  0  0  0  0  0  0  0  0
  -11.5832   14.9753   68.8688 C   0  0  0  0  0  0  0  0  0  0  0  0
  -12.2727   14.1191   69.9545 C   0  0  1  0  0  0  0  0  0  0  0  0
  -12.9121   14.5654   66.7412 N   0  0  0  0  0  0  0  0  0  0  0  0
  -10.9050   13.7738   66.7341 N   0  3  0  0  0  0  0  0  0  0  0  0
  -11.3258    9.8178   70.7335 N   0  0  0  0  0  0  0  0  0  0  0  0
  -11.5173   12.9046   70.1630 N   0  0  0  0  0  0  0  0  0  0  0  0
  -13.9838    8.8700   73.0079 N   0  3  0  0  0  0  0  0  0  0  0  0
   -9.7010   10.6227   69.2542 O   0  0  0  0  0  0  0  0  0  0  0  0
  -12.4600   11.6441   68.4434 O   0  0  0  0  0  0  0  0  0  0  0  0
  -12.9983   16.7587   74.6034 H   0  0  0  0  0  0  0  0  0  0  0  0
  -14.5879   14.9779   73.9271 H   0  0  0  0  0  0  0  0  0  0  0  0
  -11.0752   17.3254   73.1413 H   0  0  0  0  0  0  0  0  0  0  0  0
  -14.2597   13.7646   71.7975 H   0  0  0  0  0  0  0  0  0  0  0  0
  -10.7383   16.1181   71.0101 H   0  0  0  0  0  0  0  0  0  0  0  0
  -13.5490   13.9780   64.8303 H   0  0  0  0  0  0  0  0  0  0  0  0
  -10.8528   12.9137   64.8206 H   0  0  0  0  0  0  0  0  0  0  0  0
  -10.6926    6.0562   72.2381 H   0  0  0  0  0  0  0  0  0  0  0  0
  -12.4518    6.0292   72.6987 H   0  0  0  0  0  0  0  0  0  0  0  0
  -12.0096    7.7450   74.4616 H   0  0  0  0  0  0  0  0  0  0  0  0
  -10.2603    7.7907   73.9880 H   0  0  0  0  0  0  0  0  0  0  0  0
  -13.3663   10.3168   70.5083 H   0  0  0  0  0  0  0  0  0  0  0  0
  -12.5810   10.8044   72.0297 H   0  0  0  0  0  0  0  0  0  0  0  0
   -9.7714    9.1111   71.9347 H   0  0  0  0  0  0  0  0  0  0  0  0
  -10.2586    8.0266   70.5972 H   0  0  0  0  0  0  0  0  0  0  0  0
  -13.5050    8.0171   71.1753 H   0  0  0  0  0  0  0  0  0  0  0  0
  -11.9753   16.0016   68.8992 H   0  0  0  0  0  0  0  0  0  0  0  0
  -10.5073   15.0697   69.0671 H   0  0  0  0  0  0  0  0  0  0  0  0
  -13.2553   13.8072   69.5779 H   0  0  0  0  0  0  0  0  0  0  0  0
  -13.7627   15.0318   67.0442 H   0  0  0  0  0  0  0  0  0  0  0  0
   -9.9630   13.5333   67.0307 H   0  0  0  0  0  0  0  0  0  0  0  0
  -10.8340   12.8764   70.9143 H   0  0  0  0  0  0  0  0  0  0  0  0
  -14.1698    9.8693   73.1465 H   0  0  0  0  0  0  0  0  0  0  0  0
  -13.6314    8.4891   73.8930 H   0  0  0  0  0  0  0  0  0  0  0  0
  -14.8763    8.4090   72.7991 H   0  0  0  0  0  0  0  0  0  0  0  0
  1  2  2  0  0  0  0
  1  3  1  0  0  0  0
  2  4  1  0  0  0  0
  3  5  2  0  0  0  0
  4  8  2  0  0  0  0
  5  8  1  0  0  0  0
  6  7  2  0  0  0  0
  6 20  1  0  0  0  0
  7 21  1  0  0  0  0
  8 19  1  0  0  0  0
  9 18  1  0  0  0  0
  9 20  1  0  0  0  0
  9 21  2  0  0  0  0
 10 11  1  0  0  0  0
 10 22  1  0  0  0  0
 10 25  2  0  0  0  0
 11 23  1  0  0  0  0
 11 26  2  0  0  0  0
 12 13  1  0  0  0  0
 12 17  1  0  0  0  0
 13 17  1  0  0  0  0
 14 16  1  0  0  0  0
 14 22  1  0  0  0  0
 15 17  1  0  0  0  0
 15 22  1  0  0  0  0
 16 17  1  0  0  0  0
 16 24  1  6  0  0  0
 18 19  1  6  0  0  0
 19 23  1  0  0  0  0
  1 27  1  0  0  0  0
  2 28  1  0  0  0  0
  3 29  1  0  0  0  0
  4 30  1  0  0  0  0
  5 31  1  0  0  0  0
  6 32  1  0  0  0  0
  7 33  1  0  0  0  0
 12 34  1  0  0  0  0
 12 35  1  0  0  0  0
 13 36  1  0  0  0  0
 13 37  1  0  0  0  0
 14 38  1  0  0  0  0
 14 39  1  0  0  0  0
 15 40  1  0  0  0  0
 15 41  1  0  0  0  0
 16 42  1  0  0  0  0
 18 43  1  0  0  0  0
 18 44  1  0  0  0  0
 19 45  1  0  0  0  0
 20 46  1  0  0  0  0
 21 47  1  0  0  0  0
 23 48  1  0  0  0  0
 24 49  1  0  0  0  0
 24 50  1  0  0  0  0
 24 51  1  0  0  0  0
M  CHG  2  21   1  24   1
M  END
>  <idnumber>
Z2445658389

>  <Chemgauss4>
-14.4558038711548

>  <Hetero-Bemis-Murcko>
c1ccc(cc1)C(Cc2[nH]cc[nH+]2)NCCN3CCC4(C3)CC4

>  <Hetero-Bemis-Murcko>
c1ccc(cc1)C(Cc2[nH]cc[nH+]2)NCCN3CCC4(C3)CC4

>  <MW>
353.426

>  <HBD>
3

>  <HBA>
4

>  <RotBonds>
4

>  <XLogP>
0.567999958992004

>  <sLogP>
0.759

>  <TPSA>
106.979995727539

>  <FSP3>
0.421

>  <QED>
0.706

$$$$
Z2445645474
  -OEChem-04242015583D

 53 56  0     1  0  0  0  0  0999 V2000
  -11.2734   12.5963   64.9464 C   0  0  0  0  0  0  0  0  0  0  0  0
  -12.8156   16.2228   73.4012 C   0  0  0  0  0  0  0  0  0  0  0  0
  -10.2204   12.7032   65.8549 C   0  0  0  0  0  0  0  0  0  0  0  0
  -12.4932   13.2167   65.2163 C   0  0  0  0  0  0  0  0  0  0  0  0
  -13.6357   15.1256   73.1382 C   0  0  0  0  0  0  0  0  0  0  0  0
  -11.8328   16.5947   72.4837 C   0  0  0  0  0  0  0  0  0  0  0  0
  -10.3873   13.4304   67.0334 C   0  0  0  0  0  0  0  0  0  0  0  0
  -12.6601   13.9439   66.3948 C   0  0  0  0  0  0  0  0  0  0  0  0
  -13.4730   14.4002   71.9580 C   0  0  0  0  0  0  0  0  0  0  0  0
  -11.6702   15.8694   71.3035 C   0  0  0  0  0  0  0  0  0  0  0  0
  -11.6071   14.0508   67.3034 C   0  0  0  0  0  0  0  0  0  0  0  0
  -12.4903   14.7721   71.0406 C   0  0  0  0  0  0  0  0  0  0  0  0
  -10.5335   10.6789   69.6351 C   0  0  0  0  0  0  0  0  0  0  0  0
  -11.5537   11.6833   69.2461 C   0  0  0  0  0  0  0  0  0  0  0  0
  -11.0740    6.7092   72.5364 C   0  0  0  0  0  0  0  0  0  0  0  0
  -10.2161    7.5031   73.4747 C   0  0  0  0  0  0  0  0  0  0  0  0
  -12.2030    9.9216   71.3031 C   0  0  0  0  0  0  0  0  0  0  0  0
  -10.1141    8.7143   71.1696 C   0  0  0  0  0  0  0  0  0  0  0  0
  -12.0242    9.1853   72.6274 C   0  0  2  0  0  0  0  0  0  0  0  0
  -10.9186    8.2010   72.3344 C   0  0  0  0  0  0  0  0  0  0  0  0
  -11.7887   14.8389   68.5806 C   0  0  0  0  0  0  0  0  0  0  0  0
  -12.3124   13.9824   69.7550 C   0  0  1  0  0  0  0  0  0  0  0  0
  -10.9016    9.8323   70.6574 N   0  0  0  0  0  0  0  0  0  0  0  0
  -11.4318   12.8547   69.9599 N   0  0  0  0  0  0  0  0  0  0  0  0
  -13.3364    8.6567   73.0709 N   0  3  0  0  0  0  0  0  0  0  0  0
   -9.4783   10.7037   69.0179 O   0  0  0  0  0  0  0  0  0  0  0  0
  -12.3738   11.4237   68.3789 O   0  0  0  0  0  0  0  0  0  0  0  0
  -11.1428   12.0311   64.0281 H   0  0  0  0  0  0  0  0  0  0  0  0
  -12.9433   16.7883   74.3196 H   0  0  0  0  0  0  0  0  0  0  0  0
   -9.2702   12.2211   65.6444 H   0  0  0  0  0  0  0  0  0  0  0  0
  -13.3129   13.1345   64.5087 H   0  0  0  0  0  0  0  0  0  0  0  0
  -14.4017   14.8365   73.8519 H   0  0  0  0  0  0  0  0  0  0  0  0
  -11.1949   17.4496   72.6876 H   0  0  0  0  0  0  0  0  0  0  0  0
   -9.5614   13.5082   67.7356 H   0  0  0  0  0  0  0  0  0  0  0  0
  -13.6140   14.4238   66.5968 H   0  0  0  0  0  0  0  0  0  0  0  0
  -14.1165   13.5466   71.7616 H   0  0  0  0  0  0  0  0  0  0  0  0
  -10.9018   16.1664   70.5946 H   0  0  0  0  0  0  0  0  0  0  0  0
  -10.5733    6.0403   71.8460 H   0  0  0  0  0  0  0  0  0  0  0  0
  -12.0048    6.3152   72.9239 H   0  0  0  0  0  0  0  0  0  0  0  0
  -10.5855    7.6595   74.4812 H   0  0  0  0  0  0  0  0  0  0  0  0
   -9.1433    7.3648   73.4133 H   0  0  0  0  0  0  0  0  0  0  0  0
  -12.9158    9.4175   70.6392 H   0  0  0  0  0  0  0  0  0  0  0  0
  -12.5133   10.9642   71.4235 H   0  0  0  0  0  0  0  0  0  0  0  0
   -9.1283    9.0827   71.4710 H   0  0  0  0  0  0  0  0  0  0  0  0
  -10.0018    7.9706   70.3742 H   0  0  0  0  0  0  0  0  0  0  0  0
  -11.6957    9.8863   73.4042 H   0  0  0  0  0  0  0  0  0  0  0  0
  -12.4954   15.6539   68.3700 H   0  0  0  0  0  0  0  0  0  0  0  0
  -10.8452   15.3343   68.8454 H   0  0  0  0  0  0  0  0  0  0  0  0
  -13.2858   13.5625   69.4709 H   0  0  0  0  0  0  0  0  0  0  0  0
  -10.6958   12.9290   70.6562 H   0  0  0  0  0  0  0  0  0  0  0  0
  -13.9804    8.5585   72.2783 H   0  0  0  0  0  0  0  0  0  0  0  0
  -13.7727    9.2840   73.7557 H   0  0  0  0  0  0  0  0  0  0  0  0
  -13.2326    7.7348   73.5090 H   0  0  0  0  0  0  0  0  0  0  0  0
  1  3  2  0  0  0  0
  1  4  1  0  0  0  0
  2  5  2  0  0  0  0
  2  6  1  0  0  0  0
  3  7  1  0  0  0  0
  4  8  2  0  0  0  0
  5  9  1  0  0  0  0
  6 10  2  0  0  0  0
  7 11  2  0  0  0  0
  8 11  1  0  0  0  0
  9 12  2  0  0  0  0
 10 12  1  0  0  0  0
 11 21  1  0  0  0  0
 12 22  1  0  0  0  0
 13 14  1  0  0  0  0
 13 23  1  0  0  0  0
 13 26  2  0  0  0  0
 14 24  1  0  0  0  0
 14 27  2  0  0  0  0
 15 16  1  0  0  0  0
 15 20  1  0  0  0  0
 16 20  1  0  0  0  0
 17 19  1  0  0  0  0
 17 23  1  0  0  0  0
 18 20  1  0  0  0  0
 18 23  1  0  0  0  0
 19 20  1  0  0  0  0
 19 25  1  1  0  0  0
 21 22  1  6  0  0  0
 22 24  1  0  0  0  0
  1 28  1  0  0  0  0
  2 29  1  0  0  0  0
  3 30  1  0  0  0  0
  4 31  1  0  0  0  0
  5 32  1  0  0  0  0
  6 33  1  0  0  0  0
  7 34  1  0  0  0  0
  8 35  1  0  0  0  0
  9 36  1  0  0  0  0
 10 37  1  0  0  0  0
 15 38  1  0  0  0  0
 15 39  1  0  0  0  0
 16 40  1  0  0  0  0
 16 41  1  0  0  0  0
 17 42  1  0  0  0  0
 17 43  1  0  0  0  0
 18 44  1  0  0  0  0
 18 45  1  0  0  0  0
 19 46  1  0  0  0  0
 21 47  1  0  0  0  0
 21 48  1  0  0  0  0
 22 49  1  0  0  0  0
 24 50  1  0  0  0  0
 25 51  1  0  0  0  0
 25 52  1  0  0  0  0
 25 53  1  0  0  0  0
M  CHG  1  25   1
M  END
>  <idnumber>
Z2445645474

>  <Chemgauss4>
-14.4498481750488

>  <Hetero-Bemis-Murcko>
c1ccc(cc1)CC(c2ccccc2)NCCN3CCC4(C3)CC4

>  <Hetero-Bemis-Murcko>
c1ccc(cc1)CC(c2ccccc2)NCCN3CCC4(C3)CC4

>  <MW>
363.461

>  <HBD>
2

>  <HBA>
3

>  <RotBonds>
4

>  <XLogP>
2.11299991607666

>  <sLogP>
2.036

>  <TPSA>
77.0499954223633

>  <FSP3>
0.364

>  <QED>
0.816

$$$$
Z2366415399
  -OEChem-04242015583D

 52 54  0     1  0  0  0  0  0999 V2000
  -13.2398   16.0761   73.0498 C   0  0  0  0  0  0  0  0  0  0  0  0
  -14.0565   14.9859   72.7499 C   0  0  0  0  0  0  0  0  0  0  0  0
  -12.1534   16.3803   72.2295 C   0  0  0  0  0  0  0  0  0  0  0  0
  -13.7868   14.1997   71.6297 C   0  0  0  0  0  0  0  0  0  0  0  0
  -11.8836   15.5942   71.1093 C   0  0  0  0  0  0  0  0  0  0  0  0
  -10.8949   12.8473   66.6743 C   0  0  0  0  0  0  0  0  0  0  0  0
  -12.9618   14.0342   66.2795 C   0  0  0  0  0  0  0  0  0  0  0  0
  -11.0176   12.2209   65.4341 C   0  0  0  0  0  0  0  0  0  0  0  0
  -13.0846   13.4079   65.0392 C   0  0  0  0  0  0  0  0  0  0  0  0
  -11.8670   13.7539   67.0971 C   0  0  0  0  0  0  0  0  0  0  0  0
  -12.7003   14.5039   70.8094 C   0  0  0  0  0  0  0  0  0  0  0  0
  -12.1124   12.5013   64.6165 C   0  0  0  0  0  0  0  0  0  0  0  0
  -10.7169   10.3042   69.8190 C   0  0  0  0  0  0  0  0  0  0  0  0
  -11.6601   11.3103   69.2743 C   0  0  0  0  0  0  0  0  0  0  0  0
  -10.5055    8.4617   71.5433 C   0  0  0  0  0  0  0  0  0  0  0  0
  -12.5862    9.6605   71.3187 C   0  0  0  0  0  0  0  0  0  0  0  0
  -11.4248    8.1011   72.7132 C   0  0  1  0  0  0  0  0  0  0  0  0
  -12.8078    8.3933   72.1269 C   0  0  1  0  0  0  0  0  0  0  0  0
  -11.2475    6.6699   73.1913 C   0  0  0  0  0  0  0  0  0  0  0  0
  -11.7343   14.4336   68.4408 C   0  0  0  0  0  0  0  0  0  0  0  0
  -12.4058   13.6479   69.5893 C   0  0  1  0  0  0  0  0  0  0  0  0
  -11.2201    9.5210   70.8320 N   0  0  0  0  0  0  0  0  0  0  0  0
  -11.5841   12.5124   69.9418 N   0  0  0  0  0  0  0  0  0  0  0  0
  -13.8149    8.6024   73.1823 N   0  3  0  0  0  0  0  0  0  0  0  0
   -9.6003   10.2734   69.3223 O   0  0  0  0  0  0  0  0  0  0  0  0
  -12.3881   11.0266   68.3354 O   0  0  0  0  0  0  0  0  0  0  0  0
  -12.2290   11.9019   63.4243 F   0  0  0  0  0  0  0  0  0  0  0  0
  -13.4508   16.6890   73.9213 H   0  0  0  0  0  0  0  0  0  0  0  0
  -14.9031   14.7496   73.3878 H   0  0  0  0  0  0  0  0  0  0  0  0
  -11.5180   17.2297   72.4621 H   0  0  0  0  0  0  0  0  0  0  0  0
  -14.4284   13.3521   71.4038 H   0  0  0  0  0  0  0  0  0  0  0  0
  -11.0349   15.8386   70.4760 H   0  0  0  0  0  0  0  0  0  0  0  0
  -10.0387   12.6218   67.3048 H   0  0  0  0  0  0  0  0  0  0  0  0
  -13.7241   14.7394   66.6004 H   0  0  0  0  0  0  0  0  0  0  0  0
  -10.2606   11.5157   65.1046 H   0  0  0  0  0  0  0  0  0  0  0  0
  -13.9370   13.6256   64.4026 H   0  0  0  0  0  0  0  0  0  0  0  0
   -9.5236    8.8143   71.8736 H   0  0  0  0  0  0  0  0  0  0  0  0
  -10.3686    7.6269   70.8466 H   0  0  0  0  0  0  0  0  0  0  0  0
  -13.2846    9.7712   70.4834 H   0  0  0  0  0  0  0  0  0  0  0  0
  -12.6207   10.5687   71.9317 H   0  0  0  0  0  0  0  0  0  0  0  0
  -11.2145    8.7873   73.5452 H   0  0  0  0  0  0  0  0  0  0  0  0
  -13.1661    7.5748   71.4914 H   0  0  0  0  0  0  0  0  0  0  0  0
  -11.4524    5.9720   72.3773 H   0  0  0  0  0  0  0  0  0  0  0  0
  -11.9334    6.4592   74.0139 H   0  0  0  0  0  0  0  0  0  0  0  0
  -10.2248    6.5121   73.5388 H   0  0  0  0  0  0  0  0  0  0  0  0
  -12.1900   15.4301   68.3551 H   0  0  0  0  0  0  0  0  0  0  0  0
  -10.6737   14.6174   68.6578 H   0  0  0  0  0  0  0  0  0  0  0  0
  -13.3538   13.2364   69.2199 H   0  0  0  0  0  0  0  0  0  0  0  0
  -10.9262   12.6044   70.7105 H   0  0  0  0  0  0  0  0  0  0  0  0
  -14.7419    8.8043   72.7836 H   0  0  0  0  0  0  0  0  0  0  0  0
  -13.5628    9.3929   73.7913 H   0  0  0  0  0  0  0  0  0  0  0  0
  -13.9114    7.7708   73.7809 H   0  0  0  0  0  0  0  0  0  0  0  0
  1  2  2  0  0  0  0
  1  3  1  0  0  0  0
  2  4  1  0  0  0  0
  3  5  2  0  0  0  0
  4 11  2  0  0  0  0
  5 11  1  0  0  0  0
  6  8  1  0  0  0  0
  6 10  2  0  0  0  0
  7  9  2  0  0  0  0
  7 10  1  0  0  0  0
  8 12  2  0  0  0  0
  9 12  1  0  0  0  0
 10 20  1  0  0  0  0
 11 21  1  0  0  0  0
 12 27  1  0  0  0  0
 13 14  1  0  0  0  0
 13 22  1  0  0  0  0
 13 25  2  0  0  0  0
 14 23  1  0  0  0  0
 14 26  2  0  0  0  0
 15 17  1  0  0  0  0
 15 22  1  0  0  0  0
 16 18  1  0  0  0  0
 16 22  1  0  0  0  0
 17 18  1  0  0  0  0
 17 19  1  6  0  0  0
 18 24  1  6  0  0  0
 20 21  1  6  0  0  0
 21 23  1  0  0  0  0
  1 28  1  0  0  0  0
  2 29  1  0  0  0  0
  3 30  1  0  0  0  0
  4 31  1  0  0  0  0
  5 32  1  0  0  0  0
  6 33  1  0  0  0  0
  7 34  1  0  0  0  0
  8 35  1  0  0  0  0
  9 36  1  0  0  0  0
 15 37  1  0  0  0  0
 15 38  1  0  0  0  0
 16 39  1  0  0  0  0
 16 40  1  0  0  0  0
 17 41  1  0  0  0  0
 18 42  1  0  0  0  0
 19 43  1  0  0  0  0
 19 44  1  0  0  0  0
 19 45  1  0  0  0  0
 20 46  1  0  0  0  0
 20 47  1  0  0  0  0
 21 48  1  0  0  0  0
 23 49  1  0  0  0  0
 24 50  1  0  0  0  0
 24 51  1  0  0  0  0
 24 52  1  0  0  0  0
M  CHG  1  24   1
M  END
>  <idnumber>
Z2366415399

>  <Chemgauss4>
-14.4227132797241

>  <Hetero-Bemis-Murcko>
c1ccc(cc1)CC(c2ccccc2)NCCN3CCCC3

>  <Hetero-Bemis-Murcko>
c1ccc(cc1)CC(c2ccccc2)NCCN3CCCC3

>  <MW>
369.44

>  <HBD>
2

>  <HBA>
3

>  <RotBonds>
4

>  <XLogP>
2.06099987030029

>  <sLogP>
2.031

>  <TPSA>
77.0499954223633

>  <FSP3>
0.333

>  <QED>
0.81

$$$$
Z2365016165
  -OEChem-04242015583D

 49 51  0     1  0  0  0  0  0999 V2000
  -13.2929   16.1688   72.9667 C   0  0  0  0  0  0  0  0  0  0  0  0
  -14.0845   15.0789   72.6049 C   0  0  0  0  0  0  0  0  0  0  0  0
  -12.1605   16.4876   72.2171 C   0  0  0  0  0  0  0  0  0  0  0  0
  -13.7438   14.3076   71.4938 C   0  0  0  0  0  0  0  0  0  0  0  0
  -11.8198   15.7164   71.1059 C   0  0  0  0  0  0  0  0  0  0  0  0
  -10.5512   13.0289   66.7061 C   0  0  0  0  0  0  0  0  0  0  0  0
  -12.5969   14.2110   66.2014 C   0  0  0  0  0  0  0  0  0  0  0  0
  -10.5952   12.4177   65.4530 C   0  0  0  0  0  0  0  0  0  0  0  0
  -12.6409   13.5999   64.9483 C   0  0  0  0  0  0  0  0  0  0  0  0
  -11.5521   13.9255   67.0803 C   0  0  0  0  0  0  0  0  0  0  0  0
  -12.6114   14.6264   70.7442 C   0  0  0  0  0  0  0  0  0  0  0  0
  -11.6400   12.7032   64.5741 C   0  0  0  0  0  0  0  0  0  0  0  0
  -10.5504   10.4471   69.8255 C   0  0  0  0  0  0  0  0  0  0  0  0
  -11.4647   11.4564   69.2366 C   0  0  0  0  0  0  0  0  0  0  0  0
  -11.3934    8.2194   72.6590 C   0  0  0  0  0  0  0  0  0  0  0  0
  -10.4251    8.5874   71.5407 C   0  0  0  0  0  0  0  0  0  0  0  0
  -12.4884    9.7925   71.2295 C   0  0  0  0  0  0  0  0  0  0  0  0
  -12.7464    8.5295   72.0316 C   0  0  2  0  0  0  0  0  0  0  0  0
  -11.5040   14.5893   68.4376 C   0  0  0  0  0  0  0  0  0  0  0  0
  -12.2396   13.7867   69.5340 C   0  0  1  0  0  0  0  0  0  0  0  0
  -11.1042    9.6483   70.7999 N   0  0  0  0  0  0  0  0  0  0  0  0
  -11.4351   12.6504   69.9219 N   0  0  0  0  0  0  0  0  0  0  0  0
  -13.7780    8.7448   73.0596 N   0  3  0  0  0  0  0  0  0  0  0  0
   -9.4057   10.4278   69.3961 O   0  0  0  0  0  0  0  0  0  0  0  0
  -12.1333   11.1810   68.2522 O   0  0  0  0  0  0  0  0  0  0  0  0
  -11.6938   11.9494   63.0283 Cl  0  0  0  0  0  0  0  0  0  0  0  0
  -13.5591   16.7700   73.8311 H   0  0  0  0  0  0  0  0  0  0  0  0
  -14.9669   14.8311   73.1878 H   0  0  0  0  0  0  0  0  0  0  0  0
  -11.5445   17.3368   72.4978 H   0  0  0  0  0  0  0  0  0  0  0  0
  -14.3664   13.4601   71.2195 H   0  0  0  0  0  0  0  0  0  0  0  0
  -10.9357   15.9722   70.5279 H   0  0  0  0  0  0  0  0  0  0  0  0
   -9.7340   12.8010   67.3854 H   0  0  0  0  0  0  0  0  0  0  0  0
  -13.3805   14.9086   66.4852 H   0  0  0  0  0  0  0  0  0  0  0  0
   -9.8081   11.7215   65.1751 H   0  0  0  0  0  0  0  0  0  0  0  0
  -13.4611   13.8319   64.2739 H   0  0  0  0  0  0  0  0  0  0  0  0
  -11.3007    7.1722   72.9612 H   0  0  0  0  0  0  0  0  0  0  0  0
  -11.2041    8.8539   73.5336 H   0  0  0  0  0  0  0  0  0  0  0  0
   -9.4557    8.9298   71.9141 H   0  0  0  0  0  0  0  0  0  0  0  0
  -10.2685    7.7479   70.8546 H   0  0  0  0  0  0  0  0  0  0  0  0
  -13.1516    9.9022   70.3660 H   0  0  0  0  0  0  0  0  0  0  0  0
  -12.5457   10.7030   71.8373 H   0  0  0  0  0  0  0  0  0  0  0  0
  -13.0851    7.7086   71.3891 H   0  0  0  0  0  0  0  0  0  0  0  0
  -11.9587   15.5847   68.3365 H   0  0  0  0  0  0  0  0  0  0  0  0
  -10.4593   14.7748   68.7204 H   0  0  0  0  0  0  0  0  0  0  0  0
  -13.1616   13.3757   69.1031 H   0  0  0  0  0  0  0  0  0  0  0  0
  -10.8252   12.7358   70.7299 H   0  0  0  0  0  0  0  0  0  0  0  0
  -14.5667    8.0926   72.9465 H   0  0  0  0  0  0  0  0  0  0  0  0
  -14.1612    9.6997   73.0160 H   0  0  0  0  0  0  0  0  0  0  0  0
  -13.4010    8.6086   74.0082 H   0  0  0  0  0  0  0  0  0  0  0  0
  1  2  2  0  0  0  0
  1  3  1  0  0  0  0
  2  4  1  0  0  0  0
  3  5  2  0  0  0  0
  4 11  2  0  0  0  0
  5 11  1  0  0  0  0
  6  8  1  0  0  0  0
  6 10  2  0  0  0  0
  7  9  2  0  0  0  0
  7 10  1  0  0  0  0
  8 12  2  0  0  0  0
  9 12  1  0  0  0  0
 10 19  1  0  0  0  0
 11 20  1  0  0  0  0
 12 26  1  0  0  0  0
 13 14  1  0  0  0  0
 13 21  1  0  0  0  0
 13 24  2  0  0  0  0
 14 22  1  0  0  0  0
 14 25  2  0  0  0  0
 15 16  1  0  0  0  0
 15 18  1  0  0  0  0
 16 21  1  0  0  0  0
 17 18  1  0  0  0  0
 17 21  1  0  0  0  0
 18 23  1  1  0  0  0
 19 20  1  6  0  0  0
 20 22  1  0  0  0  0
  1 27  1  0  0  0  0
  2 28  1  0  0  0  0
  3 29  1  0  0  0  0
  4 30  1  0  0  0  0
  5 31  1  0  0  0  0
  6 32  1  0  0  0  0
  7 33  1  0  0  0  0
  8 34  1  0  0  0  0
  9 35  1  0  0  0  0
 15 36  1  0  0  0  0
 15 37  1  0  0  0  0
 16 38  1  0  0  0  0
 16 39  1  0  0  0  0
 17 40  1  0  0  0  0
 17 41  1  0  0  0  0
 18 42  1  0  0  0  0
 19 43  1  0  0  0  0
 19 44  1  0  0  0  0
 20 45  1  0  0  0  0
 22 46  1  0  0  0  0
 23 47  1  0  0  0  0
 23 48  1  0  0  0  0
 23 49  1  0  0  0  0
M  CHG  1  23   1
M  END
>  <idnumber>
Z2365016165

>  <Chemgauss4>
-14.4210071563721

>  <Hetero-Bemis-Murcko>
c1ccc(cc1)CC(c2ccccc2)NCCN3CCCC3

>  <Hetero-Bemis-Murcko>
c1ccc(cc1)CC(c2ccccc2)NCCN3CCCC3

>  <MW>
371.868

>  <HBD>
2

>  <HBA>
3

>  <RotBonds>
4

>  <XLogP>
2.28799986839294

>  <sLogP>
2.3

>  <TPSA>
77.0499954223633

>  <FSP3>
0.3

>  <QED>
0.81

$$$$
Z2365016102
  -OEChem-04242015583D

 49 51  0     1  0  0  0  0  0999 V2000
  -13.2929   16.1688   72.9667 C   0  0  0  0  0  0  0  0  0  0  0  0
  -14.0845   15.0789   72.6049 C   0  0  0  0  0  0  0  0  0  0  0  0
  -12.1605   16.4876   72.2171 C   0  0  0  0  0  0  0  0  0  0  0  0
  -13.7438   14.3076   71.4938 C   0  0  0  0  0  0  0  0  0  0  0  0
  -11.8198   15.7164   71.1059 C   0  0  0  0  0  0  0  0  0  0  0  0
  -10.5512   13.0289   66.7061 C   0  0  0  0  0  0  0  0  0  0  0  0
  -12.5969   14.2110   66.2014 C   0  0  0  0  0  0  0  0  0  0  0  0
  -10.5952   12.4177   65.4530 C   0  0  0  0  0  0  0  0  0  0  0  0
  -12.6409   13.5999   64.9483 C   0  0  0  0  0  0  0  0  0  0  0  0
  -11.5521   13.9255   67.0803 C   0  0  0  0  0  0  0  0  0  0  0  0
  -12.6114   14.6264   70.7442 C   0  0  0  0  0  0  0  0  0  0  0  0
  -11.6400   12.7032   64.5741 C   0  0  0  0  0  0  0  0  0  0  0  0
  -10.5504   10.4471   69.8255 C   0  0  0  0  0  0  0  0  0  0  0  0
  -11.4647   11.4564   69.2366 C   0  0  0  0  0  0  0  0  0  0  0  0
  -11.3934    8.2194   72.6590 C   0  0  0  0  0  0  0  0  0  0  0  0
  -10.4251    8.5874   71.5407 C   0  0  0  0  0  0  0  0  0  0  0  0
  -12.4884    9.7925   71.2295 C   0  0  0  0  0  0  0  0  0  0  0  0
  -12.7464    8.5295   72.0316 C   0  0  2  0  0  0  0  0  0  0  0  0
  -11.5040   14.5893   68.4376 C   0  0  0  0  0  0  0  0  0  0  0  0
  -12.2396   13.7867   69.5340 C   0  0  1  0  0  0  0  0  0  0  0  0
  -11.1042    9.6483   70.7999 N   0  0  0  0  0  0  0  0  0  0  0  0
  -11.4351   12.6504   69.9219 N   0  0  0  0  0  0  0  0  0  0  0  0
  -13.7780    8.7448   73.0596 N   0  3  0  0  0  0  0  0  0  0  0  0
   -9.4057   10.4278   69.3961 O   0  0  0  0  0  0  0  0  0  0  0  0
  -12.1333   11.1810   68.2522 O   0  0  0  0  0  0  0  0  0  0  0  0
  -11.6938   11.9494   63.0283 Cl  0  0  0  0  0  0  0  0  0  0  0  0
  -13.5591   16.7700   73.8311 H   0  0  0  0  0  0  0  0  0  0  0  0
  -14.9669   14.8311   73.1878 H   0  0  0  0  0  0  0  0  0  0  0  0
  -11.5445   17.3368   72.4978 H   0  0  0  0  0  0  0  0  0  0  0  0
  -14.3664   13.4601   71.2195 H   0  0  0  0  0  0  0  0  0  0  0  0
  -10.9357   15.9722   70.5279 H   0  0  0  0  0  0  0  0  0  0  0  0
   -9.7340   12.8010   67.3854 H   0  0  0  0  0  0  0  0  0  0  0  0
  -13.3805   14.9086   66.4852 H   0  0  0  0  0  0  0  0  0  0  0  0
   -9.8081   11.7215   65.1751 H   0  0  0  0  0  0  0  0  0  0  0  0
  -13.4611   13.8319   64.2739 H   0  0  0  0  0  0  0  0  0  0  0  0
  -11.3007    7.1722   72.9612 H   0  0  0  0  0  0  0  0  0  0  0  0
  -11.2041    8.8539   73.5336 H   0  0  0  0  0  0  0  0  0  0  0  0
   -9.4557    8.9298   71.9141 H   0  0  0  0  0  0  0  0  0  0  0  0
  -10.2685    7.7479   70.8546 H   0  0  0  0  0  0  0  0  0  0  0  0
  -13.1516    9.9022   70.3660 H   0  0  0  0  0  0  0  0  0  0  0  0
  -12.5457   10.7030   71.8373 H   0  0  0  0  0  0  0  0  0  0  0  0
  -13.0851    7.7086   71.3891 H   0  0  0  0  0  0  0  0  0  0  0  0
  -11.9587   15.5847   68.3365 H   0  0  0  0  0  0  0  0  0  0  0  0
  -10.4593   14.7748   68.7204 H   0  0  0  0  0  0  0  0  0  0  0  0
  -13.1616   13.3757   69.1031 H   0  0  0  0  0  0  0  0  0  0  0  0
  -10.8252   12.7358   70.7299 H   0  0  0  0  0  0  0  0  0  0  0  0
  -14.5667    8.0926   72.9465 H   0  0  0  0  0  0  0  0  0  0  0  0
  -14.1612    9.6997   73.0160 H   0  0  0  0  0  0  0  0  0  0  0  0
  -13.4010    8.6086   74.0082 H   0  0  0  0  0  0  0  0  0  0  0  0
  1  2  2  0  0  0  0
  1  3  1  0  0  0  0
  2  4  1  0  0  0  0
  3  5  2  0  0  0  0
  4 11  2  0  0  0  0
  5 11  1  0  0  0  0
  6  8  1  0  0  0  0
  6 10  2  0  0  0  0
  7  9  2  0  0  0  0
  7 10  1  0  0  0  0
  8 12  2  0  0  0  0
  9 12  1  0  0  0  0
 10 19  1  0  0  0  0
 11 20  1  0  0  0  0
 12 26  1  0  0  0  0
 13 14  1  0  0  0  0
 13 21  1  0  0  0  0
 13 24  2  0  0  0  0
 14 22  1  0  0  0  0
 14 25  2  0  0  0  0
 15 16  1  0  0  0  0
 15 18  1  0  0  0  0
 16 21  1  0  0  0  0
 17 18  1  0  0  0  0
 17 21  1  0  0  0  0
 18 23  1  0  0  0  0
 19 20  1  6  0  0  0
 20 22  1  0  0  0  0
  1 27  1  0  0  0  0
  2 28  1  0  0  0  0
  3 29  1  0  0  0  0
  4 30  1  0  0  0  0
  5 31  1  0  0  0  0
  6 32  1  0  0  0  0
  7 33  1  0  0  0  0
  8 34  1  0  0  0  0
  9 35  1  0  0  0  0
 15 36  1  0  0  0  0
 15 37  1  0  0  0  0
 16 38  1  0  0  0  0
 16 39  1  0  0  0  0
 17 40  1  0  0  0  0
 17 41  1  0  0  0  0
 18 42  1  6  0  0  0
 19 43  1  0  0  0  0
 19 44  1  0  0  0  0
 20 45  1  0  0  0  0
 22 46  1  0  0  0  0
 23 47  1  0  0  0  0
 23 48  1  0  0  0  0
 23 49  1  0  0  0  0
M  CHG  1  23   1
M  END
>  <idnumber>
Z2365016102

>  <Chemgauss4>
-14.4210071563721

>  <Hetero-Bemis-Murcko>
c1ccc(cc1)CC(c2ccccc2)NCCN3CCCC3

>  <Hetero-Bemis-Murcko>
c1ccc(cc1)CC(c2ccccc2)NCCN3CCCC3

>  <MW>
371.868

>  <HBD>
2

>  <HBA>
3

>  <RotBonds>
4

>  <XLogP>
2.28799986839294

>  <sLogP>
2.3

>  <TPSA>
77.0499954223633

>  <FSP3>
0.3

>  <QED>
0.81

$$$$
Z2366125370
  -OEChem-04242015583D

 52 54  0     1  0  0  0  0  0999 V2000
  -11.2560   12.5497   64.9968 C   0  0  0  0  0  0  0  0  0  0  0  0
  -10.2053   12.5466   65.9141 C   0  0  0  0  0  0  0  0  0  0  0  0
  -12.4181   13.2714   65.2699 C   0  0  0  0  0  0  0  0  0  0  0  0
  -12.0136   16.7666   72.3635 C   0  0  0  0  0  0  0  0  0  0  0  0
  -12.5384   16.1559   73.5024 C   0  0  0  0  0  0  0  0  0  0  0  0
  -10.3166   13.2650   67.1046 C   0  0  0  0  0  0  0  0  0  0  0  0
  -12.5295   13.9897   66.4603 C   0  0  0  0  0  0  0  0  0  0  0  0
  -11.9070   16.0475   71.1729 C   0  0  0  0  0  0  0  0  0  0  0  0
  -12.9566   14.8262   73.4509 C   0  0  0  0  0  0  0  0  0  0  0  0
  -11.4787   13.9866   67.3777 C   0  0  0  0  0  0  0  0  0  0  0  0
  -12.3251   14.7178   71.1214 C   0  0  0  0  0  0  0  0  0  0  0  0
  -12.8499   14.1071   72.2604 C   0  0  0  0  0  0  0  0  0  0  0  0
  -10.7282   10.4922   69.6546 C   0  0  0  0  0  0  0  0  0  0  0  0
  -11.6519   11.5902   69.2771 C   0  0  0  0  0  0  0  0  0  0  0  0
  -10.3957    8.5271   71.1328 C   0  0  0  0  0  0  0  0  0  0  0  0
  -12.4557    9.7623   71.3559 C   0  0  0  0  0  0  0  0  0  0  0  0
  -11.3668    7.7003   71.9846 C   0  0  1  0  0  0  0  0  0  0  0  0
  -12.3019    8.7947   72.5185 C   0  0  2  0  0  0  0  0  0  0  0  0
  -12.0433    6.6169   71.1434 C   0  0  0  0  0  0  0  0  0  0  0  0
  -11.6001   14.7652   68.6678 C   0  0  0  0  0  0  0  0  0  0  0  0
  -12.2075   13.9381   69.8229 C   0  0  1  0  0  0  0  0  0  0  0  0
  -11.1803    9.6579   70.6519 N   0  0  0  0  0  0  0  0  0  0  0  0
  -11.4323   12.7332   70.0130 N   0  0  0  0  0  0  0  0  0  0  0  0
  -13.6081    8.2890   72.9695 N   0  3  0  0  0  0  0  0  0  0  0  0
   -9.6696   10.4333   69.0454 O   0  0  0  0  0  0  0  0  0  0  0  0
  -12.4846   11.4197   68.4000 O   0  0  0  0  0  0  0  0  0  0  0  0
  -13.2545   12.8300   72.2206 F   0  0  0  0  0  0  0  0  0  0  0  0
  -11.1686   11.9914   64.0693 H   0  0  0  0  0  0  0  0  0  0  0  0
   -9.2999   11.9857   65.7012 H   0  0  0  0  0  0  0  0  0  0  0  0
  -13.2360   13.2749   64.5554 H   0  0  0  0  0  0  0  0  0  0  0  0
  -11.6874   17.8020   72.4036 H   0  0  0  0  0  0  0  0  0  0  0  0
  -12.6209   16.7156   74.4295 H   0  0  0  0  0  0  0  0  0  0  0  0
   -9.4929   13.2567   67.8136 H   0  0  0  0  0  0  0  0  0  0  0  0
  -13.4387   14.5490   66.6647 H   0  0  0  0  0  0  0  0  0  0  0  0
  -11.4962   16.5314   70.2908 H   0  0  0  0  0  0  0  0  0  0  0  0
  -13.3656   14.3505   74.3375 H   0  0  0  0  0  0  0  0  0  0  0  0
   -9.5851    8.9357   71.7474 H   0  0  0  0  0  0  0  0  0  0  0  0
   -9.9511    7.9808   70.2949 H   0  0  0  0  0  0  0  0  0  0  0  0
  -13.2440    9.4670   70.6543 H   0  0  0  0  0  0  0  0  0  0  0  0
  -12.6348   10.7918   71.6807 H   0  0  0  0  0  0  0  0  0  0  0  0
  -10.8333    7.2154   72.8104 H   0  0  0  0  0  0  0  0  0  0  0  0
  -11.8418    9.2987   73.3774 H   0  0  0  0  0  0  0  0  0  0  0  0
  -12.5801    7.0764   70.3160 H   0  0  0  0  0  0  0  0  0  0  0  0
  -12.7450    6.0586   71.7597 H   0  0  0  0  0  0  0  0  0  0  0  0
  -11.2919    5.9359   70.7490 H   0  0  0  0  0  0  0  0  0  0  0  0
  -12.2299   15.6434   68.4674 H   0  0  0  0  0  0  0  0  0  0  0  0
  -10.6186   15.1699   68.9479 H   0  0  0  0  0  0  0  0  0  0  0  0
  -13.2120   13.6115   69.5247 H   0  0  0  0  0  0  0  0  0  0  0  0
  -10.6983   12.7293   70.7154 H   0  0  0  0  0  0  0  0  0  0  0  0
  -14.1316    9.0052   73.4928 H   0  0  0  0  0  0  0  0  0  0  0  0
  -13.5044    7.4724   73.5888 H   0  0  0  0  0  0  0  0  0  0  0  0
  -14.1966    7.9986   72.1757 H   0  0  0  0  0  0  0  0  0  0  0  0
  1  2  2  0  0  0  0
  1  3  1  0  0  0  0
  2  6  1  0  0  0  0
  3  7  2  0  0  0  0
  4  5  2  0  0  0  0
  4  8  1  0  0  0  0
  5  9  1  0  0  0  0
  6 10  2  0  0  0  0
  7 10  1  0  0  0  0
  8 11  2  0  0  0  0
  9 12  2  0  0  0  0
 10 20  1  0  0  0  0
 11 12  1  0  0  0  0
 11 21  1  0  0  0  0
 12 27  1  0  0  0  0
 13 14  1  0  0  0  0
 13 22  1  0  0  0  0
 13 25  2  0  0  0  0
 14 23  1  0  0  0  0
 14 26  2  0  0  0  0
 15 17  1  0  0  0  0
 15 22  1  0  0  0  0
 16 18  1  0  0  0  0
 16 22  1  0  0  0  0
 17 18  1  0  0  0  0
 17 19  1  6  0  0  0
 18 24  1  1  0  0  0
 20 21  1  6  0  0  0
 21 23  1  0  0  0  0
  1 28  1  0  0  0  0
  2 29  1  0  0  0  0
  3 30  1  0  0  0  0
  4 31  1  0  0  0  0
  5 32  1  0  0  0  0
  6 33  1  0  0  0  0
  7 34  1  0  0  0  0
  8 35  1  0  0  0  0
  9 36  1  0  0  0  0
 15 37  1  0  0  0  0
 15 38  1  0  0  0  0
 16 39  1  0  0  0  0
 16 40  1  0  0  0  0
 17 41  1  0  0  0  0
 18 42  1  0  0  0  0
 19 43  1  0  0  0  0
 19 44  1  0  0  0  0
 19 45  1  0  0  0  0
 20 46  1  0  0  0  0
 20 47  1  0  0  0  0
 21 48  1  0  0  0  0
 23 49  1  0  0  0  0
 24 50  1  0  0  0  0
 24 51  1  0  0  0  0
 24 52  1  0  0  0  0
M  CHG  1  24   1
M  END
>  <idnumber>
Z2366125370

>  <Chemgauss4>
-14.4022541046143

>  <Hetero-Bemis-Murcko>
c1ccc(cc1)CC(c2ccccc2)NCCN3CCCC3

>  <Hetero-Bemis-Murcko>
c1ccc(cc1)CC(c2ccccc2)NCCN3CCCC3

>  <MW>
369.44

>  <HBD>
2

>  <HBA>
3

>  <RotBonds>
4

>  <XLogP>
2.4009997844696

>  <sLogP>
2.031

>  <TPSA>
77.0499954223633

>  <FSP3>
0.333

>  <QED>
0.81

$$$$
Z2445657428
  -OEChem-04242015583D

 53 56  0     1  0  0  0  0  0999 V2000
  -12.9257   15.8696   73.4457 C   0  0  0  0  0  0  0  0  0  0  0  0
  -13.7738   14.8196   73.0941 C   0  0  0  0  0  0  0  0  0  0  0  0
  -11.8793   16.2346   72.5986 C   0  0  0  0  0  0  0  0  0  0  0  0
  -13.5756   14.1344   71.8954 C   0  0  0  0  0  0  0  0  0  0  0  0
  -11.6811   15.5494   71.3999 C   0  0  0  0  0  0  0  0  0  0  0  0
  -10.2630   13.2267   67.1077 C   0  0  0  0  0  0  0  0  0  0  0  0
  -12.4746   13.8606   66.3700 C   0  0  0  0  0  0  0  0  0  0  0  0
  -10.0604   12.5402   65.9106 C   0  0  0  0  0  0  0  0  0  0  0  0
  -12.2720   13.1741   65.1728 C   0  0  0  0  0  0  0  0  0  0  0  0
  -11.4702   13.8869   67.3375 C   0  0  0  0  0  0  0  0  0  0  0  0
  -12.5292   14.4993   71.0483 C   0  0  0  0  0  0  0  0  0  0  0  0
  -11.0648   12.5139   64.9431 C   0  0  0  0  0  0  0  0  0  0  0  0
  -10.6653   10.3839   69.5826 C   0  0  0  0  0  0  0  0  0  0  0  0
  -11.6207   11.4455   69.1811 C   0  0  0  0  0  0  0  0  0  0  0  0
  -11.5265    6.3311   72.2846 C   0  0  0  0  0  0  0  0  0  0  0  0
  -10.6905    7.0505   73.2996 C   0  0  0  0  0  0  0  0  0  0  0  0
  -12.4541    9.6344   71.1258 C   0  0  0  0  0  0  0  0  0  0  0  0
  -10.4117    8.3450   71.0552 C   0  0  0  0  0  0  0  0  0  0  0  0
  -12.3790    8.8402   72.4264 C   0  0  2  0  0  0  0  0  0  0  0  0
  -11.2997    7.8216   72.1529 C   0  0  0  0  0  0  0  0  0  0  0  0
  -11.6902   14.6317   68.6344 C   0  0  0  0  0  0  0  0  0  0  0  0
  -12.3125   13.7533   69.7427 C   0  0  1  0  0  0  0  0  0  0  0  0
  -11.1236    9.5147   70.5479 N   0  0  0  0  0  0  0  0  0  0  0  0
  -11.4912   12.5819   69.9480 N   0  0  0  0  0  0  0  0  0  0  0  0
  -13.7342    8.3513   72.7765 N   0  3  0  0  0  0  0  0  0  0  0  0
   -9.5774   10.3876   69.0246 O   0  0  0  0  0  0  0  0  0  0  0  0
  -12.4014   11.2552   68.2611 O   0  0  0  0  0  0  0  0  0  0  0  0
  -10.8693   11.8570   63.7922 F   0  0  0  0  0  0  0  0  0  0  0  0
  -13.0811   16.4039   74.3785 H   0  0  0  0  0  0  0  0  0  0  0  0
  -14.5893   14.5360   73.7531 H   0  0  0  0  0  0  0  0  0  0  0  0
  -11.2195   17.0528   72.8715 H   0  0  0  0  0  0  0  0  0  0  0  0
  -14.2413   13.3174   71.6297 H   0  0  0  0  0  0  0  0  0  0  0  0
  -10.8631   15.8406   70.7462 H   0  0  0  0  0  0  0  0  0  0  0  0
   -9.4748   13.2410   67.8559 H   0  0  0  0  0  0  0  0  0  0  0  0
  -13.4183   14.3723   66.5401 H   0  0  0  0  0  0  0  0  0  0  0  0
   -9.1205   12.0269   65.7313 H   0  0  0  0  0  0  0  0  0  0  0  0
  -13.0539   13.1530   64.4195 H   0  0  0  0  0  0  0  0  0  0  0  0
  -11.0159    5.6688   71.5952 H   0  0  0  0  0  0  0  0  0  0  0  0
  -12.4926    5.9625   72.6050 H   0  0  0  0  0  0  0  0  0  0  0  0
  -11.1085    7.1832   74.2904 H   0  0  0  0  0  0  0  0  0  0  0  0
   -9.6224    6.8689   73.2904 H   0  0  0  0  0  0  0  0  0  0  0  0
  -13.1488    9.1875   70.4043 H   0  0  0  0  0  0  0  0  0  0  0  0
  -12.7280   10.6838   71.2722 H   0  0  0  0  0  0  0  0  0  0  0  0
   -9.4300    8.6588   71.4241 H   0  0  0  0  0  0  0  0  0  0  0  0
  -10.2858    7.6286   70.2370 H   0  0  0  0  0  0  0  0  0  0  0  0
  -12.0659    9.4957   73.2479 H   0  0  0  0  0  0  0  0  0  0  0  0
  -12.3505   15.4838   68.4199 H   0  0  0  0  0  0  0  0  0  0  0  0
  -10.7435   15.0756   68.9698 H   0  0  0  0  0  0  0  0  0  0  0  0
  -13.2849   13.3868   69.3896 H   0  0  0  0  0  0  0  0  0  0  0  0
  -10.7924   12.5974   70.6853 H   0  0  0  0  0  0  0  0  0  0  0  0
  -14.3367    8.3117   71.9471 H   0  0  0  0  0  0  0  0  0  0  0  0
  -14.1820    8.9696   73.4621 H   0  0  0  0  0  0  0  0  0  0  0  0
  -13.6923    7.4094   73.1812 H   0  0  0  0  0  0  0  0  0  0  0  0
  1  2  2  0  0  0  0
  1  3  1  0  0  0  0
  2  4  1  0  0  0  0
  3  5  2  0  0  0  0
  4 11  2  0  0  0  0
  5 11  1  0  0  0  0
  6  8  1  0  0  0  0
  6 10  2  0  0  0  0
  7  9  2  0  0  0  0
  7 10  1  0  0  0  0
  8 12  2  0  0  0  0
  9 12  1  0  0  0  0
 10 21  1  0  0  0  0
 11 22  1  0  0  0  0
 12 28  1  0  0  0  0
 13 14  1  0  0  0  0
 13 23  1  0  0  0  0
 13 26  2  0  0  0  0
 14 24  1  0  0  0  0
 14 27  2  0  0  0  0
 15 16  1  0  0  0  0
 15 20  1  0  0  0  0
 16 20  1  0  0  0  0
 17 19  1  0  0  0  0
 17 23  1  0  0  0  0
 18 20  1  0  0  0  0
 18 23  1  0  0  0  0
 19 20  1  0  0  0  0
 19 25  1  1  0  0  0
 21 22  1  6  0  0  0
 22 24  1  0  0  0  0
  1 29  1  0  0  0  0
  2 30  1  0  0  0  0
  3 31  1  0  0  0  0
  4 32  1  0  0  0  0
  5 33  1  0  0  0  0
  6 34  1  0  0  0  0
  7 35  1  0  0  0  0
  8 36  1  0  0  0  0
  9 37  1  0  0  0  0
 15 38  1  0  0  0  0
 15 39  1  0  0  0  0
 16 40  1  0  0  0  0
 16 41  1  0  0  0  0
 17 42  1  0  0  0  0
 17 43  1  0  0  0  0
 18 44  1  0  0  0  0
 18 45  1  0  0  0  0
 19 46  1  0  0  0  0
 21 47  1  0  0  0  0
 21 48  1  0  0  0  0
 22 49  1  0  0  0  0
 24 50  1  0  0  0  0
 25 51  1  0  0  0  0
 25 52  1  0  0  0  0
 25 53  1  0  0  0  0
M  CHG  1  25   1
M  END
>  <idnumber>
Z2445657428

>  <Chemgauss4>
-14.3644285202026

>  <Hetero-Bemis-Murcko>
c1ccc(cc1)CC(c2ccccc2)NCCN3CCC4(C3)CC4

>  <Hetero-Bemis-Murcko>
c1ccc(cc1)CC(c2ccccc2)NCCN3CCC4(C3)CC4

>  <MW>
381.451

>  <HBD>
2

>  <HBA>
3

>  <RotBonds>
4

>  <XLogP>
2.24799966812134

>  <sLogP>
2.175

>  <TPSA>
77.0499954223633

>  <FSP3>
0.364

>  <QED>
0.797

$$$$
Z2366551533
  -OEChem-04242015583D

 50 52  0     1  0  0  0  0  0999 V2000
  -13.0277   16.3544   73.4570 C   0  0  0  0  0  0  0  0  0  0  0  0
  -13.9069   15.3413   73.0743 C   0  0  0  0  0  0  0  0  0  0  0  0
  -11.9258   16.6601   72.6582 C   0  0  0  0  0  0  0  0  0  0  0  0
  -13.6841   14.6339   71.8929 C   0  0  0  0  0  0  0  0  0  0  0  0
  -11.7030   15.9528   71.4769 C   0  0  0  0  0  0  0  0  0  0  0  0
  -12.6734   13.9116   65.3682 C   0  0  0  0  0  0  0  0  0  0  0  0
  -11.4010   13.4157   65.4096 C   0  0  0  0  0  0  0  0  0  0  0  0
  -12.5821   14.9397   71.0942 C   0  0  0  0  0  0  0  0  0  0  0  0
  -11.7959   14.4450   67.3292 C   0  0  0  0  0  0  0  0  0  0  0  0
  -10.8479   10.7256   69.7579 C   0  0  0  0  0  0  0  0  0  0  0  0
  -11.7310   11.8255   69.3011 C   0  0  0  0  0  0  0  0  0  0  0  0
  -10.7437    8.7405   71.3269 C   0  0  0  0  0  0  0  0  0  0  0  0
  -12.7509   10.0726   71.2105 C   0  0  0  0  0  0  0  0  0  0  0  0
  -11.6819    8.3406   72.4686 C   0  0  1  0  0  0  0  0  0  0  0  0
  -13.0458    8.7592   71.9150 C   0  0  1  0  0  0  0  0  0  0  0  0
  -11.5883    6.8676   72.8287 C   0  0  0  0  0  0  0  0  0  0  0  0
  -11.6230   15.0050   68.7227 C   0  0  0  0  0  0  0  0  0  0  0  0
  -12.3387   14.1695   69.8075 C   0  0  1  0  0  0  0  0  0  0  0  0
  -12.8913   14.5431   66.5689 N   0  0  0  0  0  0  0  0  0  0  0  0
  -10.8817   13.7606   66.6341 N   0  3  0  0  0  0  0  0  0  0  0  0
  -11.3956    9.8936   70.7070 N   0  0  0  0  0  0  0  0  0  0  0  0
  -11.5846   12.9632   70.0630 N   0  0  0  0  0  0  0  0  0  0  0  0
  -14.0384    8.9406   72.9891 N   0  3  0  0  0  0  0  0  0  0  0  0
   -9.7353   10.6700   69.2546 O   0  0  0  0  0  0  0  0  0  0  0  0
  -12.4748   11.6615   68.3462 O   0  0  0  0  0  0  0  0  0  0  0  0
  -13.2021   16.9060   74.3762 H   0  0  0  0  0  0  0  0  0  0  0  0
  -14.7655   15.1038   73.6955 H   0  0  0  0  0  0  0  0  0  0  0  0
  -11.2417   17.4495   72.9553 H   0  0  0  0  0  0  0  0  0  0  0  0
  -14.3742   13.8461   71.6028 H   0  0  0  0  0  0  0  0  0  0  0  0
  -10.8418   16.1978   70.8609 H   0  0  0  0  0  0  0  0  0  0  0  0
  -13.4732   13.9116   64.6546 H   0  0  0  0  0  0  0  0  0  0  0  0
  -10.7735   12.8595   64.7420 H   0  0  0  0  0  0  0  0  0  0  0  0
   -9.7427    9.0075   71.6793 H   0  0  0  0  0  0  0  0  0  0  0  0
  -10.6562    7.9582   70.5644 H   0  0  0  0  0  0  0  0  0  0  0  0
  -13.4420   10.2908   70.3905 H   0  0  0  0  0  0  0  0  0  0  0  0
  -12.7320   10.9287   71.8950 H   0  0  0  0  0  0  0  0  0  0  0  0
  -11.4315    8.9439   73.3521 H   0  0  0  0  0  0  0  0  0  0  0  0
  -13.4516    8.0170   71.2174 H   0  0  0  0  0  0  0  0  0  0  0  0
  -11.8340    6.2509   71.9622 H   0  0  0  0  0  0  0  0  0  0  0  0
  -12.2849    6.6313   73.6353 H   0  0  0  0  0  0  0  0  0  0  0  0
  -10.5764    6.6229   73.1570 H   0  0  0  0  0  0  0  0  0  0  0  0
  -12.0197   16.0300   68.7200 H   0  0  0  0  0  0  0  0  0  0  0  0
  -10.5533   15.1086   68.9483 H   0  0  0  0  0  0  0  0  0  0  0  0
  -13.3093   13.8450   69.4111 H   0  0  0  0  0  0  0  0  0  0  0  0
  -13.7517   15.0121   66.8383 H   0  0  0  0  0  0  0  0  0  0  0  0
   -9.9472   13.5309   66.9615 H   0  0  0  0  0  0  0  0  0  0  0  0
  -10.9221   12.9543   70.8332 H   0  0  0  0  0  0  0  0  0  0  0  0
  -14.9522    9.2276   72.6128 H   0  0  0  0  0  0  0  0  0  0  0  0
  -13.7403    9.6632   73.6586 H   0  0  0  0  0  0  0  0  0  0  0  0
  -14.1830    8.0703   73.5191 H   0  0  0  0  0  0  0  0  0  0  0  0
  1  2  2  0  0  0  0
  1  3  1  0  0  0  0
  2  4  1  0  0  0  0
  3  5  2  0  0  0  0
  4  8  2  0  0  0  0
  5  8  1  0  0  0  0
  6  7  2  0  0  0  0
  6 19  1  0  0  0  0
  7 20  1  0  0  0  0
  8 18  1  0  0  0  0
  9 17  1  0  0  0  0
  9 19  1  0  0  0  0
  9 20  2  0  0  0  0
 10 11  1  0  0  0  0
 10 21  1  0  0  0  0
 10 24  2  0  0  0  0
 11 22  1  0  0  0  0
 11 25  2  0  0  0  0
 12 14  1  0  0  0  0
 12 21  1  0  0  0  0
 13 15  1  0  0  0  0
 13 21  1  0  0  0  0
 14 15  1  0  0  0  0
 14 16  1  6  0  0  0
 15 23  1  6  0  0  0
 17 18  1  6  0  0  0
 18 22  1  0  0  0  0
  1 26  1  0  0  0  0
  2 27  1  0  0  0  0
  3 28  1  0  0  0  0
  4 29  1  0  0  0  0
  5 30  1  0  0  0  0
  6 31  1  0  0  0  0
  7 32  1  0  0  0  0
 12 33  1  0  0  0  0
 12 34  1  0  0  0  0
 13 35  1  0  0  0  0
 13 36  1  0  0  0  0
 14 37  1  0  0  0  0
 15 38  1  0  0  0  0
 16 39  1  0  0  0  0
 16 40  1  0  0  0  0
 16 41  1  0  0  0  0
 17 42  1  0  0  0  0
 17 43  1  0  0  0  0
 18 44  1  0  0  0  0
 19 45  1  0  0  0  0
 20 46  1  0  0  0  0
 22 47  1  0  0  0  0
 23 48  1  0  0  0  0
 23 49  1  0  0  0  0
 23 50  1  0  0  0  0
M  CHG  2  20   1  23   1
M  END
>  <idnumber>
Z2366551533

>  <Chemgauss4>
-14.353141784668

>  <Hetero-Bemis-Murcko>
c1ccc(cc1)C(Cc2[nH]cc[nH+]2)NCCN3CCCC3

>  <Hetero-Bemis-Murcko>
c1ccc(cc1)C(Cc2[nH]cc[nH+]2)NCCN3CCCC3

>  <MW>
341.415

>  <HBD>
3

>  <HBA>
4

>  <RotBonds>
4

>  <XLogP>
0.380999743938446

>  <sLogP>
0.615

>  <TPSA>
106.979995727539

>  <FSP3>
0.389

>  <QED>
0.709

$$$$
Z2276582086
  -OEChem-04242015583D

 53 55  0     1  0  0  0  0  0999 V2000
  -11.7615   12.7402   64.4732 C   0  0  0  0  0  0  0  0  0  0  0  0
  -12.9784   16.2529   72.9199 C   0  0  0  0  0  0  0  0  0  0  0  0
  -10.7268   12.3648   65.3300 C   0  0  0  0  0  0  0  0  0  0  0  0
  -12.6798   13.7113   64.8724 C   0  0  0  0  0  0  0  0  0  0  0  0
  -13.8606   15.2325   72.5650 C   0  0  0  0  0  0  0  0  0  0  0  0
  -11.8381   16.4877   72.1515 C   0  0  0  0  0  0  0  0  0  0  0  0
  -10.6104   12.9604   66.5859 C   0  0  0  0  0  0  0  0  0  0  0  0
  -12.5635   14.3069   66.1283 C   0  0  0  0  0  0  0  0  0  0  0  0
  -13.6025   14.4466   71.4418 C   0  0  0  0  0  0  0  0  0  0  0  0
  -11.5800   15.7019   71.0283 C   0  0  0  0  0  0  0  0  0  0  0  0
  -11.5287   13.9315   66.9851 C   0  0  0  0  0  0  0  0  0  0  0  0
  -12.4622   14.6813   70.6735 C   0  0  0  0  0  0  0  0  0  0  0  0
  -11.6047   11.4400   69.1113 C   0  0  0  0  0  0  0  0  0  0  0  0
  -10.7576    7.9170   70.2261 C   0  0  0  0  0  0  0  0  0  0  0  0
  -12.2284    9.5014   71.5048 C   0  0  0  0  0  0  0  0  0  0  0  0
  -11.6380    6.6796   70.2258 C   0  0  0  0  0  0  0  0  0  0  0  0
  -13.7107    7.3922   71.1312 C   0  0  0  0  0  0  0  0  0  0  0  0
  -13.5767    8.8103   71.6764 C   0  0  1  0  0  0  0  0  0  0  0  0
  -11.4034   14.5772   68.3462 C   0  0  0  0  0  0  0  0  0  0  0  0
  -10.7464   10.3451   69.6932 C   0  0  0  0  0  0  0  0  0  0  0  0
  -12.1803   13.8257   69.4502 C   0  0  1  0  0  0  0  0  0  0  0  0
  -11.4625   12.6273   69.8139 N   0  0  0  0  0  0  0  0  0  0  0  0
  -11.5827    9.1859   70.1777 N   0  3  1  0  0  0  0  0  0  0  0  0
  -12.3318   11.2795   68.1347 O   0  0  0  0  0  0  0  0  0  0  0  0
  -12.5254    6.6288   71.3381 O   0  0  0  0  0  0  0  0  0  0  0  0
  -13.8636    8.7806   73.0792 O   0  0  0  0  0  0  0  0  0  0  0  0
  -11.8511   12.2773   63.4948 H   0  0  0  0  0  0  0  0  0  0  0  0
  -13.1802   16.8656   73.7937 H   0  0  0  0  0  0  0  0  0  0  0  0
  -10.0110   11.6094   65.0189 H   0  0  0  0  0  0  0  0  0  0  0  0
  -13.4849   14.0046   64.2052 H   0  0  0  0  0  0  0  0  0  0  0  0
  -14.7491   15.0502   73.1625 H   0  0  0  0  0  0  0  0  0  0  0  0
  -11.1516   17.2828   72.4269 H   0  0  0  0  0  0  0  0  0  0  0  0
   -9.8011   12.6615   67.2469 H   0  0  0  0  0  0  0  0  0  0  0  0
  -13.2836   15.0625   66.4309 H   0  0  0  0  0  0  0  0  0  0  0  0
  -14.2953   13.6536   71.1730 H   0  0  0  0  0  0  0  0  0  0  0  0
  -10.6890   15.8919   70.4357 H   0  0  0  0  0  0  0  0  0  0  0  0
  -10.1271    7.9697   71.1202 H   0  0  0  0  0  0  0  0  0  0  0  0
  -10.1161    7.9046   69.3382 H   0  0  0  0  0  0  0  0  0  0  0  0
  -12.3828   10.5862   71.5596 H   0  0  0  0  0  0  0  0  0  0  0  0
  -11.5195    9.2473   72.3022 H   0  0  0  0  0  0  0  0  0  0  0  0
  -12.1811    6.5698   69.2790 H   0  0  0  0  0  0  0  0  0  0  0  0
  -10.9878    5.8016   70.3070 H   0  0  0  0  0  0  0  0  0  0  0  0
  -14.5170    6.8653   71.6530 H   0  0  0  0  0  0  0  0  0  0  0  0
  -13.9822    7.4103   70.0688 H   0  0  0  0  0  0  0  0  0  0  0  0
  -14.3623    9.4277   71.2138 H   0  0  0  0  0  0  0  0  0  0  0  0
  -11.7793   15.6064   68.2611 H   0  0  0  0  0  0  0  0  0  0  0  0
  -10.3423   14.6768   68.6106 H   0  0  0  0  0  0  0  0  0  0  0  0
  -10.1851   10.7162   70.5552 H   0  0  0  0  0  0  0  0  0  0  0  0
  -10.0638    9.9528   68.9343 H   0  0  0  0  0  0  0  0  0  0  0  0
  -13.1397   13.4929   69.0338 H   0  0  0  0  0  0  0  0  0  0  0  0
  -10.8536   12.6597   70.6265 H   0  0  0  0  0  0  0  0  0  0  0  0
  -12.3234    9.0631   69.4740 H   0  0  0  0  0  0  0  0  0  0  0  0
  -13.8883    9.7038   73.3684 H   0  0  0  0  0  0  0  0  0  0  0  0
  1  3  2  0  0  0  0
  1  4  1  0  0  0  0
  2  5  2  0  0  0  0
  2  6  1  0  0  0  0
  3  7  1  0  0  0  0
  4  8  2  0  0  0  0
  5  9  1  0  0  0  0
  6 10  2  0  0  0  0
  7 11  2  0  0  0  0
  8 11  1  0  0  0  0
  9 12  2  0  0  0  0
 10 12  1  0  0  0  0
 11 19  1  0  0  0  0
 12 21  1  0  0  0  0
 13 20  1  0  0  0  0
 13 22  1  0  0  0  0
 13 24  2  0  0  0  0
 14 16  1  0  0  0  0
 14 23  1  0  0  0  0
 15 18  1  0  0  0  0
 15 23  1  0  0  0  0
 16 25  1  0  0  0  0
 17 18  1  0  0  0  0
 17 25  1  0  0  0  0
 18 26  1  1  0  0  0
 19 21  1  6  0  0  0
 20 23  1  6  0  0  0
 21 22  1  0  0  0  0
  1 27  1  0  0  0  0
  2 28  1  0  0  0  0
  3 29  1  0  0  0  0
  4 30  1  0  0  0  0
  5 31  1  0  0  0  0
  6 32  1  0  0  0  0
  7 33  1  0  0  0  0
  8 34  1  0  0  0  0
  9 35  1  0  0  0  0
 10 36  1  0  0  0  0
 14 37  1  0  0  0  0
 14 38  1  0  0  0  0
 15 39  1  0  0  0  0
 15 40  1  0  0  0  0
 16 41  1  0  0  0  0
 16 42  1  0  0  0  0
 17 43  1  0  0  0  0
 17 44  1  0  0  0  0
 18 45  1  0  0  0  0
 19 46  1  0  0  0  0
 19 47  1  0  0  0  0
 20 48  1  0  0  0  0
 20 49  1  0  0  0  0
 21 50  1  0  0  0  0
 22 51  1  0  0  0  0
 23 52  1  0  0  0  0
 26 53  1  0  0  0  0
M  CHG  1  23   1
M  END
>  <idnumber>
Z2276582086

>  <Chemgauss4>
-14.3396892547607

>  <Hetero-Bemis-Murcko>
c1ccc(cc1)CC(c2ccccc2)NCC[NH+]3CCCOCC3

>  <Hetero-Bemis-Murcko>
c1ccc(cc1)CC(c2ccccc2)NCC[NH+]3CCCOCC3

>  <MW>
354.45

>  <HBD>
2

>  <HBA>
4

>  <RotBonds>
6

>  <XLogP>
1.69700002670288

>  <sLogP>
1.78

>  <TPSA>
63.0

>  <FSP3>
0.381

>  <QED>
0.83

$$$$
Z2366551597
  -OEChem-04242015583D

 50 52  0     1  0  0  0  0  0999 V2000
  -12.5334   15.7478   73.6482 C   0  0  0  0  0  0  0  0  0  0  0  0
  -13.4336   14.7287   73.3373 C   0  0  0  0  0  0  0  0  0  0  0  0
  -11.5180   16.0791   72.7510 C   0  0  0  0  0  0  0  0  0  0  0  0
  -13.3185   14.0409   72.1293 C   0  0  0  0  0  0  0  0  0  0  0  0
  -11.4028   15.3913   71.5430 C   0  0  0  0  0  0  0  0  0  0  0  0
  -12.9387   13.4230   65.5271 C   0  0  0  0  0  0  0  0  0  0  0  0
  -11.6625   12.9433   65.4373 C   0  0  0  0  0  0  0  0  0  0  0  0
  -12.3031   14.3722   71.2321 C   0  0  0  0  0  0  0  0  0  0  0  0
  -11.8809   13.9405   67.4016 C   0  0  0  0  0  0  0  0  0  0  0  0
  -10.6558   10.1981   69.6708 C   0  0  0  0  0  0  0  0  0  0  0  0
  -11.5923   11.2930   69.3185 C   0  0  0  0  0  0  0  0  0  0  0  0
  -11.0297    6.9077   71.1795 C   0  0  0  0  0  0  0  0  0  0  0  0
  -12.3535    7.0441   71.9410 C   0  0  0  0  0  0  0  0  0  0  0  0
  -10.2455    8.2126   71.0737 C   0  0  0  0  0  0  0  0  0  0  0  0
  -12.3773    9.4958   71.3552 C   0  0  0  0  0  0  0  0  0  0  0  0
  -12.5803    8.4615   72.4565 C   0  0  1  0  0  0  0  0  0  0  0  0
  -11.5799   14.4832   68.7800 C   0  0  0  0  0  0  0  0  0  0  0  0
  -12.1769   13.6233   69.9163 C   0  0  1  0  0  0  0  0  0  0  0  0
  -13.0461   14.0348   66.7528 N   0  0  0  0  0  0  0  0  0  0  0  0
  -11.0307   13.2780   66.6106 N   0  3  0  0  0  0  0  0  0  0  0  0
  -11.0951    9.3271   70.6593 N   0  0  0  0  0  0  0  0  0  0  0  0
  -11.3874   12.4236   70.0791 N   0  0  0  0  0  0  0  0  0  0  0  0
  -13.9672    8.5739   72.9792 N   0  3  0  0  0  0  0  0  0  0  0  0
   -9.6004   10.1770   69.0525 O   0  0  0  0  0  0  0  0  0  0  0  0
  -12.4250   11.1344   68.4373 O   0  0  0  0  0  0  0  0  0  0  0  0
  -12.6240   16.2842   74.5882 H   0  0  0  0  0  0  0  0  0  0  0  0
  -14.2250   14.4713   74.0353 H   0  0  0  0  0  0  0  0  0  0  0  0
  -10.8176   16.8732   72.9922 H   0  0  0  0  0  0  0  0  0  0  0  0
  -14.0243   13.2482   71.8956 H   0  0  0  0  0  0  0  0  0  0  0  0
  -10.6085   15.6562   70.8501 H   0  0  0  0  0  0  0  0  0  0  0  0
  -13.8040   13.4224   64.8946 H   0  0  0  0  0  0  0  0  0  0  0  0
  -11.0965   12.4048   64.7036 H   0  0  0  0  0  0  0  0  0  0  0  0
  -10.4020    6.1440   71.6767 H   0  0  0  0  0  0  0  0  0  0  0  0
  -11.2313    6.5150   70.1662 H   0  0  0  0  0  0  0  0  0  0  0  0
  -13.1787    6.7452   71.2688 H   0  0  0  0  0  0  0  0  0  0  0  0
  -12.3648    6.3244   72.7786 H   0  0  0  0  0  0  0  0  0  0  0  0
   -9.7604    8.4335   72.0329 H   0  0  0  0  0  0  0  0  0  0  0  0
   -9.4483    8.1174   70.3236 H   0  0  0  0  0  0  0  0  0  0  0  0
  -13.1636    9.4098   70.5824 H   0  0  0  0  0  0  0  0  0  0  0  0
  -12.4685   10.5117   71.7739 H   0  0  0  0  0  0  0  0  0  0  0  0
  -11.9160    8.6717   73.3035 H   0  0  0  0  0  0  0  0  0  0  0  0
  -11.9871   15.5028   68.8314 H   0  0  0  0  0  0  0  0  0  0  0  0
  -10.4947   14.5977   68.9022 H   0  0  0  0  0  0  0  0  0  0  0  0
  -13.1776   13.2917   69.6111 H   0  0  0  0  0  0  0  0  0  0  0  0
  -13.8817   14.4886   67.1114 H   0  0  0  0  0  0  0  0  0  0  0  0
  -10.0662   13.0560   66.8423 H   0  0  0  0  0  0  0  0  0  0  0  0
  -10.6533   12.4135   70.7814 H   0  0  0  0  0  0  0  0  0  0  0  0
  -13.9636    8.7024   73.9955 H   0  0  0  0  0  0  0  0  0  0  0  0
  -14.5049    7.7279   72.7668 H   0  0  0  0  0  0  0  0  0  0  0  0
  -14.4508    9.3731   72.5584 H   0  0  0  0  0  0  0  0  0  0  0  0
  1  2  2  0  0  0  0
  1  3  1  0  0  0  0
  2  4  1  0  0  0  0
  3  5  2  0  0  0  0
  4  8  2  0  0  0  0
  5  8  1  0  0  0  0
  6  7  2  0  0  0  0
  6 19  1  0  0  0  0
  7 20  1  0  0  0  0
  8 18  1  0  0  0  0
  9 17  1  0  0  0  0
  9 19  1  0  0  0  0
  9 20  2  0  0  0  0
 10 11  1  0  0  0  0
 10 21  1  0  0  0  0
 10 24  2  0  0  0  0
 11 22  1  0  0  0  0
 11 25  2  0  0  0  0
 12 13  1  0  0  0  0
 12 14  1  0  0  0  0
 13 16  1  0  0  0  0
 14 21  1  0  0  0  0
 15 16  1  0  0  0  0
 15 21  1  0  0  0  0
 16 23  1  6  0  0  0
 17 18  1  6  0  0  0
 18 22  1  0  0  0  0
  1 26  1  0  0  0  0
  2 27  1  0  0  0  0
  3 28  1  0  0  0  0
  4 29  1  0  0  0  0
  5 30  1  0  0  0  0
  6 31  1  0  0  0  0
  7 32  1  0  0  0  0
 12 33  1  0  0  0  0
 12 34  1  0  0  0  0
 13 35  1  0  0  0  0
 13 36  1  0  0  0  0
 14 37  1  0  0  0  0
 14 38  1  0  0  0  0
 15 39  1  0  0  0  0
 15 40  1  0  0  0  0
 16 41  1  0  0  0  0
 17 42  1  0  0  0  0
 17 43  1  0  0  0  0
 18 44  1  0  0  0  0
 19 45  1  0  0  0  0
 20 46  1  0  0  0  0
 22 47  1  0  0  0  0
 23 48  1  0  0  0  0
 23 49  1  0  0  0  0
 23 50  1  0  0  0  0
M  CHG  2  20   1  23   1
M  END
>  <idnumber>
Z2366551597

>  <Chemgauss4>
-14.3236207962036

>  <Hetero-Bemis-Murcko>
c1ccc(cc1)C(Cc2[nH]cc[nH+]2)NCCN3CCCCC3

>  <Hetero-Bemis-Murcko>
c1ccc(cc1)C(Cc2[nH]cc[nH+]2)NCCN3CCCCC3

>  <MW>
341.415

>  <HBD>
3

>  <HBA>
4

>  <RotBonds>
4

>  <XLogP>
0.620999932289124

>  <sLogP>
0.759

>  <TPSA>
106.979995727539

>  <FSP3>
0.389

>  <QED>
0.714

$$$$
Z2861623177
  -OEChem-04242015583D

 51 53  0     1  0  0  0  0  0999 V2000
  -13.1139   15.1383   73.5103 C   0  0  0  0  0  0  0  0  0  0  0  0
  -12.5780   16.4203   73.5619 C   0  0  0  0  0  0  0  0  0  0  0  0
  -10.2121   13.3521   67.3797 C   0  0  0  0  0  0  0  0  0  0  0  0
  -12.3076   14.2621   66.5937 C   0  0  0  0  0  0  0  0  0  0  0  0
  -10.0816   12.6285   66.1944 C   0  0  0  0  0  0  0  0  0  0  0  0
  -12.1771   13.5385   65.4083 C   0  0  0  0  0  0  0  0  0  0  0  0
  -13.0048   14.3918   72.3423 C   0  0  0  0  0  0  0  0  0  0  0  0
  -11.9479   16.9060   72.4276 C   0  0  0  0  0  0  0  0  0  0  0  0
  -11.3251   14.1688   67.5794 C   0  0  0  0  0  0  0  0  0  0  0  0
  -11.0641   12.7217   65.2087 C   0  0  0  0  0  0  0  0  0  0  0  0
  -12.3557   14.9684   71.2625 C   0  0  0  0  0  0  0  0  0  0  0  0
  -11.0303   10.6221   69.8800 C   0  0  0  0  0  0  0  0  0  0  0  0
  -11.8295   11.7953   69.4483 C   0  0  0  0  0  0  0  0  0  0  0  0
  -12.0332    8.0348   72.3446 C   0  0  0  0  0  0  0  0  0  0  0  0
  -12.9191   10.0664   71.4612 C   0  0  0  0  0  0  0  0  0  0  0  0
  -13.3411    8.6813   71.9135 C   0  0  2  0  0  0  0  0  0  0  0  0
  -11.0338    8.5619   71.3029 C   0  0  2  0  0  0  0  0  0  0  0  0
   -9.6370    8.6977   71.8975 C   0  0  0  0  0  0  0  0  0  0  0  0
  -11.4661   14.9545   68.8632 C   0  0  0  0  0  0  0  0  0  0  0  0
  -12.2181   14.1820   69.9700 C   0  0  1  0  0  0  0  0  0  0  0  0
  -11.8224   16.2106   71.2751 N   0  0  0  0  0  0  0  0  0  0  0  0
  -11.6090    9.8360   70.8551 N   0  0  0  0  0  0  0  0  0  0  0  0
  -11.5630   12.9150   70.2042 N   0  0  0  0  0  0  0  0  0  0  0  0
  -14.3008    8.7482   73.0280 N   0  3  0  0  0  0  0  0  0  0  0  0
   -9.9433   10.4803   69.3379 O   0  0  0  0  0  0  0  0  0  0  0  0
  -12.6128   11.6970   68.5164 O   0  0  0  0  0  0  0  0  0  0  0  0
  -10.9029   11.8292   63.7465 Cl  0  0  0  0  0  0  0  0  0  0  0  0
  -13.6156   14.7219   74.3786 H   0  0  0  0  0  0  0  0  0  0  0  0
  -12.6513   17.0203   74.4617 H   0  0  0  0  0  0  0  0  0  0  0  0
   -9.4424   13.2740   68.1431 H   0  0  0  0  0  0  0  0  0  0  0  0
  -13.1777   14.8964   66.7414 H   0  0  0  0  0  0  0  0  0  0  0  0
   -9.2088   11.9965   66.0527 H   0  0  0  0  0  0  0  0  0  0  0  0
  -12.9507   13.6210   64.6491 H   0  0  0  0  0  0  0  0  0  0  0  0
  -13.4186   13.3905   72.2890 H   0  0  0  0  0  0  0  0  0  0  0  0
  -11.5132   17.9001   72.4165 H   0  0  0  0  0  0  0  0  0  0  0  0
  -11.7495    8.3581   73.3543 H   0  0  0  0  0  0  0  0  0  0  0  0
  -12.0928    6.9418   72.3379 H   0  0  0  0  0  0  0  0  0  0  0  0
  -13.6211   10.5081   70.7482 H   0  0  0  0  0  0  0  0  0  0  0  0
  -12.7697   10.7582   72.2982 H   0  0  0  0  0  0  0  0  0  0  0  0
  -13.8157    8.1195   71.1008 H   0  0  0  0  0  0  0  0  0  0  0  0
  -11.0019    7.8973   70.4309 H   0  0  0  0  0  0  0  0  0  0  0  0
   -9.6640    9.3575   72.7645 H   0  0  0  0  0  0  0  0  0  0  0  0
   -8.9558    9.1149   71.1561 H   0  0  0  0  0  0  0  0  0  0  0  0
   -9.2678    7.7202   72.2075 H   0  0  0  0  0  0  0  0  0  0  0  0
  -12.0037   15.8834   68.6265 H   0  0  0  0  0  0  0  0  0  0  0  0
  -10.4746   15.2736   69.2109 H   0  0  0  0  0  0  0  0  0  0  0  0
  -13.2244   13.9426   69.6032 H   0  0  0  0  0  0  0  0  0  0  0  0
  -10.8809   12.8482   70.9541 H   0  0  0  0  0  0  0  0  0  0  0  0
  -13.8580    8.5000   73.9238 H   0  0  0  0  0  0  0  0  0  0  0  0
  -15.0897    8.1015   72.8863 H   0  0  0  0  0  0  0  0  0  0  0  0
  -14.6944    9.6941   73.1319 H   0  0  0  0  0  0  0  0  0  0  0  0
  1  2  2  0  0  0  0
  1  7  1  0  0  0  0
  2  8  1  0  0  0  0
  3  5  1  0  0  0  0
  3  9  2  0  0  0  0
  4  6  2  0  0  0  0
  4  9  1  0  0  0  0
  5 10  2  0  0  0  0
  6 10  1  0  0  0  0
  7 11  2  0  0  0  0
  8 21  2  0  0  0  0
  9 19  1  0  0  0  0
 10 27  1  0  0  0  0
 11 20  1  0  0  0  0
 11 21  1  0  0  0  0
 12 13  1  0  0  0  0
 12 22  1  0  0  0  0
 12 25  2  0  0  0  0
 13 23  1  0  0  0  0
 13 26  2  0  0  0  0
 14 16  1  0  0  0  0
 14 17  1  0  0  0  0
 15 16  1  0  0  0  0
 15 22  1  0  0  0  0
 16 24  1  1  0  0  0
 17 18  1  6  0  0  0
 17 22  1  0  0  0  0
 19 20  1  6  0  0  0
 20 23  1  0  0  0  0
  1 28  1  0  0  0  0
  2 29  1  0  0  0  0
  3 30  1  0  0  0  0
  4 31  1  0  0  0  0
  5 32  1  0  0  0  0
  6 33  1  0  0  0  0
  7 34  1  0  0  0  0
  8 35  1  0  0  0  0
 14 36  1  0  0  0  0
 14 37  1  0  0  0  0
 15 38  1  0  0  0  0
 15 39  1  0  0  0  0
 16 40  1  0  0  0  0
 17 41  1  0  0  0  0
 18 42  1  0  0  0  0
 18 43  1  0  0  0  0
 18 44  1  0  0  0  0
 19 45  1  0  0  0  0
 19 46  1  0  0  0  0
 20 47  1  0  0  0  0
 23 48  1  0  0  0  0
 24 49  1  0  0  0  0
 24 50  1  0  0  0  0
 24 51  1  0  0  0  0
M  CHG  1  24   1
M  END
>  <idnumber>
Z2861623177

>  <Chemgauss4>
-14.2904596328735

>  <Hetero-Bemis-Murcko>
c1ccc(cc1)CC(c2ccccn2)NCCN3CCCC3

>  <Hetero-Bemis-Murcko>
c1ccc(cc1)CC(c2ccccn2)NCCN3CCCC3

>  <MW>
386.883

>  <HBD>
2

>  <HBA>
4

>  <RotBonds>
4

>  <XLogP>
1.57500004768372

>  <sLogP>
2.083

>  <TPSA>
89.9399948120117

>  <FSP3>
0.35

>  <QED>
0.787

$$$$
Z2366551597
  -OEChem-04242015583D

 50 52  0     1  0  0  0  0  0999 V2000
  -12.8973   15.8925   73.6157 C   0  0  0  0  0  0  0  0  0  0  0  0
  -13.6856   14.8106   73.2237 C   0  0  0  0  0  0  0  0  0  0  0  0
  -11.8905   16.3636   72.7730 C   0  0  0  0  0  0  0  0  0  0  0  0
  -13.4670   14.1997   71.9889 C   0  0  0  0  0  0  0  0  0  0  0  0
  -11.6720   15.7527   71.5382 C   0  0  0  0  0  0  0  0  0  0  0  0
  -12.8217   13.9603   65.3828 C   0  0  0  0  0  0  0  0  0  0  0  0
  -11.5033   13.6081   65.3163 C   0  0  0  0  0  0  0  0  0  0  0  0
  -12.4602   14.6707   71.1462 C   0  0  0  0  0  0  0  0  0  0  0  0
  -11.8780   14.4780   67.3171 C   0  0  0  0  0  0  0  0  0  0  0  0
  -10.3723   10.7558   69.4465 C   0  0  0  0  0  0  0  0  0  0  0  0
  -11.3977   11.7743   69.1136 C   0  0  0  0  0  0  0  0  0  0  0  0
   -9.7612    8.5823   72.2919 C   0  0  0  0  0  0  0  0  0  0  0  0
  -11.1385    8.5791   72.9658 C   0  0  0  0  0  0  0  0  0  0  0  0
   -9.8180    8.7548   70.7759 C   0  0  0  0  0  0  0  0  0  0  0  0
  -12.1046    9.7555   70.9598 C   0  0  0  0  0  0  0  0  0  0  0  0
  -12.2740    8.6069   71.9486 C   0  0  2  0  0  0  0  0  0  0  0  0
  -11.6740   14.9751   68.7301 C   0  0  0  0  0  0  0  0  0  0  0  0
  -12.2215   14.0056   69.8013 C   0  0  1  0  0  0  0  0  0  0  0  0
  -13.0259   14.4955   66.6318 N   0  0  0  0  0  0  0  0  0  0  0  0
  -10.9437   13.9399   66.5266 N   0  3  0  0  0  0  0  0  0  0  0  0
  -10.7567    9.8013   70.3790 N   0  0  0  0  0  0  0  0  0  0  0  0
  -11.3263   12.8787   69.9347 N   0  0  0  0  0  0  0  0  0  0  0  0
  -13.5667    8.7699   72.6639 N   0  3  0  0  0  0  0  0  0  0  0  0
   -9.3006   10.8656   68.8669 O   0  0  0  0  0  0  0  0  0  0  0  0
  -12.1833   11.5837   68.1961 O   0  0  0  0  0  0  0  0  0  0  0  0
  -13.0685   16.3690   74.5766 H   0  0  0  0  0  0  0  0  0  0  0  0
  -14.4702   14.4444   73.8793 H   0  0  0  0  0  0  0  0  0  0  0  0
  -11.2774   17.2066   73.0774 H   0  0  0  0  0  0  0  0  0  0  0  0
  -14.0859   13.3571   71.6919 H   0  0  0  0  0  0  0  0  0  0  0  0
  -10.8852   16.1264   70.8882 H   0  0  0  0  0  0  0  0  0  0  0  0
  -13.6626   13.9108   64.7200 H   0  0  0  0  0  0  0  0  0  0  0  0
  -10.8654   13.1636   64.5786 H   0  0  0  0  0  0  0  0  0  0  0  0
   -9.1424    9.3861   72.7316 H   0  0  0  0  0  0  0  0  0  0  0  0
   -9.2374    7.6373   72.5319 H   0  0  0  0  0  0  0  0  0  0  0  0
  -11.2231    7.6887   73.6120 H   0  0  0  0  0  0  0  0  0  0  0  0
  -11.2043    9.4545   73.6365 H   0  0  0  0  0  0  0  0  0  0  0  0
   -8.8302    9.0425   70.3894 H   0  0  0  0  0  0  0  0  0  0  0  0
  -10.0821    7.7999   70.3034 H   0  0  0  0  0  0  0  0  0  0  0  0
  -12.8722    9.6865   70.1709 H   0  0  0  0  0  0  0  0  0  0  0  0
  -12.2617   10.7308   71.4569 H   0  0  0  0  0  0  0  0  0  0  0  0
  -12.3355    7.6519   71.4157 H   0  0  0  0  0  0  0  0  0  0  0  0
  -12.1784   15.9479   68.8157 H   0  0  0  0  0  0  0  0  0  0  0  0
  -10.6092   15.1847   68.8970 H   0  0  0  0  0  0  0  0  0  0  0  0
  -13.1757   13.5974   69.4444 H   0  0  0  0  0  0  0  0  0  0  0  0
  -13.9120   14.8497   66.9813 H   0  0  0  0  0  0  0  0  0  0  0  0
   -9.9702   13.7981   66.7822 H   0  0  0  0  0  0  0  0  0  0  0  0
  -10.6171   12.9017   70.6618 H   0  0  0  0  0  0  0  0  0  0  0  0
  -14.3270    8.3153   72.1494 H   0  0  0  0  0  0  0  0  0  0  0  0
  -13.8012    9.7618   72.7685 H   0  0  0  0  0  0  0  0  0  0  0  0
  -13.5202    8.3529   73.5985 H   0  0  0  0  0  0  0  0  0  0  0  0
  1  2  2  0  0  0  0
  1  3  1  0  0  0  0
  2  4  1  0  0  0  0
  3  5  2  0  0  0  0
  4  8  2  0  0  0  0
  5  8  1  0  0  0  0
  6  7  2  0  0  0  0
  6 19  1  0  0  0  0
  7 20  1  0  0  0  0
  8 18  1  0  0  0  0
  9 17  1  0  0  0  0
  9 19  1  0  0  0  0
  9 20  2  0  0  0  0
 10 11  1  0  0  0  0
 10 21  1  0  0  0  0
 10 24  2  0  0  0  0
 11 22  1  0  0  0  0
 11 25  2  0  0  0  0
 12 13  1  0  0  0  0
 12 14  1  0  0  0  0
 13 16  1  0  0  0  0
 14 21  1  0  0  0  0
 15 16  1  0  0  0  0
 15 21  1  0  0  0  0
 16 23  1  1  0  0  0
 17 18  1  6  0  0  0
 18 22  1  0  0  0  0
  1 26  1  0  0  0  0
  2 27  1  0  0  0  0
  3 28  1  0  0  0  0
  4 29  1  0  0  0  0
  5 30  1  0  0  0  0
  6 31  1  0  0  0  0
  7 32  1  0  0  0  0
 12 33  1  0  0  0  0
 12 34  1  0  0  0  0
 13 35  1  0  0  0  0
 13 36  1  0  0  0  0
 14 37  1  0  0  0  0
 14 38  1  0  0  0  0
 15 39  1  0  0  0  0
 15 40  1  0  0  0  0
 16 41  1  0  0  0  0
 17 42  1  0  0  0  0
 17 43  1  0  0  0  0
 18 44  1  0  0  0  0
 19 45  1  0  0  0  0
 20 46  1  0  0  0  0
 22 47  1  0  0  0  0
 23 48  1  0  0  0  0
 23 49  1  0  0  0  0
 23 50  1  0  0  0  0
M  CHG  2  20   1  23   1
M  END
>  <idnumber>
Z2366551597

>  <Chemgauss4>
-14.2812395095825

>  <Hetero-Bemis-Murcko>
c1ccc(cc1)C(Cc2[nH]cc[nH+]2)NCCN3CCCCC3

>  <Hetero-Bemis-Murcko>
c1ccc(cc1)C(Cc2[nH]cc[nH+]2)NCCN3CCCCC3

>  <MW>
341.415

>  <HBD>
3

>  <HBA>
4

>  <RotBonds>
4

>  <XLogP>
0.620999932289124

>  <sLogP>
0.759

>  <TPSA>
106.979995727539

>  <FSP3>
0.389

>  <QED>
0.714

$$$$
Z2366551511
  -OEChem-04242015583D

 50 52  0     1  0  0  0  0  0999 V2000
  -12.8973   15.8925   73.6157 C   0  0  0  0  0  0  0  0  0  0  0  0
  -13.6856   14.8106   73.2237 C   0  0  0  0  0  0  0  0  0  0  0  0
  -11.8905   16.3636   72.7730 C   0  0  0  0  0  0  0  0  0  0  0  0
  -13.4670   14.1997   71.9889 C   0  0  0  0  0  0  0  0  0  0  0  0
  -11.6720   15.7527   71.5382 C   0  0  0  0  0  0  0  0  0  0  0  0
  -12.8217   13.9603   65.3828 C   0  0  0  0  0  0  0  0  0  0  0  0
  -11.5033   13.6081   65.3163 C   0  0  0  0  0  0  0  0  0  0  0  0
  -12.4602   14.6707   71.1462 C   0  0  0  0  0  0  0  0  0  0  0  0
  -11.8780   14.4780   67.3171 C   0  0  0  0  0  0  0  0  0  0  0  0
  -10.3723   10.7558   69.4465 C   0  0  0  0  0  0  0  0  0  0  0  0
  -11.3977   11.7743   69.1136 C   0  0  0  0  0  0  0  0  0  0  0  0
   -9.7612    8.5823   72.2919 C   0  0  0  0  0  0  0  0  0  0  0  0
  -11.1385    8.5791   72.9658 C   0  0  0  0  0  0  0  0  0  0  0  0
   -9.8180    8.7548   70.7759 C   0  0  0  0  0  0  0  0  0  0  0  0
  -12.1046    9.7555   70.9598 C   0  0  0  0  0  0  0  0  0  0  0  0
  -12.2740    8.6069   71.9486 C   0  0  2  0  0  0  0  0  0  0  0  0
  -11.6740   14.9751   68.7301 C   0  0  0  0  0  0  0  0  0  0  0  0
  -12.2215   14.0056   69.8013 C   0  0  1  0  0  0  0  0  0  0  0  0
  -13.0259   14.4955   66.6318 N   0  0  0  0  0  0  0  0  0  0  0  0
  -10.9437   13.9399   66.5266 N   0  3  0  0  0  0  0  0  0  0  0  0
  -10.7567    9.8013   70.3790 N   0  0  0  0  0  0  0  0  0  0  0  0
  -11.3263   12.8787   69.9347 N   0  0  0  0  0  0  0  0  0  0  0  0
  -13.5667    8.7699   72.6639 N   0  3  0  0  0  0  0  0  0  0  0  0
   -9.3006   10.8656   68.8669 O   0  0  0  0  0  0  0  0  0  0  0  0
  -12.1833   11.5837   68.1961 O   0  0  0  0  0  0  0  0  0  0  0  0
  -13.0685   16.3690   74.5766 H   0  0  0  0  0  0  0  0  0  0  0  0
  -14.4702   14.4444   73.8793 H   0  0  0  0  0  0  0  0  0  0  0  0
  -11.2774   17.2066   73.0774 H   0  0  0  0  0  0  0  0  0  0  0  0
  -14.0859   13.3571   71.6919 H   0  0  0  0  0  0  0  0  0  0  0  0
  -10.8852   16.1264   70.8882 H   0  0  0  0  0  0  0  0  0  0  0  0
  -13.6626   13.9108   64.7200 H   0  0  0  0  0  0  0  0  0  0  0  0
  -10.8654   13.1636   64.5786 H   0  0  0  0  0  0  0  0  0  0  0  0
   -9.1424    9.3861   72.7316 H   0  0  0  0  0  0  0  0  0  0  0  0
   -9.2374    7.6373   72.5319 H   0  0  0  0  0  0  0  0  0  0  0  0
  -11.2231    7.6887   73.6120 H   0  0  0  0  0  0  0  0  0  0  0  0
  -11.2043    9.4545   73.6365 H   0  0  0  0  0  0  0  0  0  0  0  0
   -8.8302    9.0425   70.3894 H   0  0  0  0  0  0  0  0  0  0  0  0
  -10.0821    7.7999   70.3034 H   0  0  0  0  0  0  0  0  0  0  0  0
  -12.8722    9.6865   70.1709 H   0  0  0  0  0  0  0  0  0  0  0  0
  -12.2617   10.7308   71.4569 H   0  0  0  0  0  0  0  0  0  0  0  0
  -12.3355    7.6519   71.4157 H   0  0  0  0  0  0  0  0  0  0  0  0
  -12.1784   15.9479   68.8157 H   0  0  0  0  0  0  0  0  0  0  0  0
  -10.6092   15.1847   68.8970 H   0  0  0  0  0  0  0  0  0  0  0  0
  -13.1757   13.5974   69.4444 H   0  0  0  0  0  0  0  0  0  0  0  0
  -13.9120   14.8497   66.9813 H   0  0  0  0  0  0  0  0  0  0  0  0
   -9.9702   13.7981   66.7822 H   0  0  0  0  0  0  0  0  0  0  0  0
  -10.6171   12.9017   70.6618 H   0  0  0  0  0  0  0  0  0  0  0  0
  -14.3270    8.3153   72.1494 H   0  0  0  0  0  0  0  0  0  0  0  0
  -13.8012    9.7618   72.7685 H   0  0  0  0  0  0  0  0  0  0  0  0
  -13.5202    8.3529   73.5985 H   0  0  0  0  0  0  0  0  0  0  0  0
  1  2  2  0  0  0  0
  1  3  1  0  0  0  0
  2  4  1  0  0  0  0
  3  5  2  0  0  0  0
  4  8  2  0  0  0  0
  5  8  1  0  0  0  0
  6  7  2  0  0  0  0
  6 19  1  0  0  0  0
  7 20  1  0  0  0  0
  8 18  1  0  0  0  0
  9 17  1  0  0  0  0
  9 19  1  0  0  0  0
  9 20  2  0  0  0  0
 10 11  1  0  0  0  0
 10 21  1  0  0  0  0
 10 24  2  0  0  0  0
 11 22  1  0  0  0  0
 11 25  2  0  0  0  0
 12 13  1  0  0  0  0
 12 14  1  0  0  0  0
 13 16  1  0  0  0  0
 14 21  1  0  0  0  0
 15 16  1  0  0  0  0
 15 21  1  0  0  0  0
 16 23  1  0  0  0  0
 17 18  1  6  0  0  0
 18 22  1  0  0  0  0
  1 26  1  0  0  0  0
  2 27  1  0  0  0  0
  3 28  1  0  0  0  0
  4 29  1  0  0  0  0
  5 30  1  0  0  0  0
  6 31  1  0  0  0  0
  7 32  1  0  0  0  0
 12 33  1  0  0  0  0
 12 34  1  0  0  0  0
 13 35  1  0  0  0  0
 13 36  1  0  0  0  0
 14 37  1  0  0  0  0
 14 38  1  0  0  0  0
 15 39  1  0  0  0  0
 15 40  1  0  0  0  0
 16 41  1  6  0  0  0
 17 42  1  0  0  0  0
 17 43  1  0  0  0  0
 18 44  1  0  0  0  0
 19 45  1  0  0  0  0
 20 46  1  0  0  0  0
 22 47  1  0  0  0  0
 23 48  1  0  0  0  0
 23 49  1  0  0  0  0
 23 50  1  0  0  0  0
M  CHG  2  20   1  23   1
M  END
>  <idnumber>
Z2366551511

>  <Chemgauss4>
-14.2812395095825

>  <Hetero-Bemis-Murcko>
c1ccc(cc1)C(Cc2[nH]cc[nH+]2)NCCN3CCCCC3

>  <Hetero-Bemis-Murcko>
c1ccc(cc1)C(Cc2[nH]cc[nH+]2)NCCN3CCCCC3

>  <MW>
341.415

>  <HBD>
3

>  <HBA>
4

>  <RotBonds>
4

>  <XLogP>
0.620999932289124

>  <sLogP>
0.759

>  <TPSA>
106.979995727539

>  <FSP3>
0.389

>  <QED>
0.714

$$$$
Z3013305846
  -OEChem-04242015583D

 57 59  0     1  0  0  0  0  0999 V2000
  -12.8029   15.0939   73.4477 C   0  0  0  0  0  0  0  0  0  0  0  0
  -12.3978   16.4239   73.4342 C   0  0  0  0  0  0  0  0  0  0  0  0
   -9.9614   12.6660   66.0315 C   0  0  0  0  0  0  0  0  0  0  0  0
  -12.1790   13.3387   65.3480 C   0  0  0  0  0  0  0  0  0  0  0  0
  -10.0957   13.4126   67.2020 C   0  0  0  0  0  0  0  0  0  0  0  0
  -12.3132   14.0853   66.5186 C   0  0  0  0  0  0  0  0  0  0  0  0
  -12.6865   14.3257   72.2946 C   0  0  0  0  0  0  0  0  0  0  0  0
  -11.8869   16.9342   72.2517 C   0  0  0  0  0  0  0  0  0  0  0  0
  -11.0031   12.6290   65.1044 C   0  0  0  0  0  0  0  0  0  0  0  0
  -11.2716   14.1222   67.4456 C   0  0  0  0  0  0  0  0  0  0  0  0
  -12.1629   14.9300   71.1630 C   0  0  0  0  0  0  0  0  0  0  0  0
  -10.4856   10.6965   69.8132 C   0  0  0  0  0  0  0  0  0  0  0  0
  -11.4233   11.7699   69.4013 C   0  0  0  0  0  0  0  0  0  0  0  0
  -12.2346   10.0646   71.4521 C   0  0  0  0  0  0  0  0  0  0  0  0
  -10.2129    8.7443   71.4088 C   0  0  0  0  0  0  0  0  0  0  0  0
  -12.1741    9.1692   72.6794 C   0  0  2  0  0  0  0  0  0  0  0  0
  -11.2650    7.9964   72.2528 C   0  0  0  0  0  0  0  0  0  0  0  0
  -10.8604   11.8311   63.8527 C   0  0  0  0  0  0  0  0  0  0  0  0
  -10.6251    7.3051   73.4598 C   0  0  0  0  0  0  0  0  0  0  0  0
  -11.9736    6.9394   71.3852 C   0  0  0  0  0  0  0  0  0  0  0  0
  -11.4169   14.9297   68.7152 C   0  0  0  0  0  0  0  0  0  0  0  0
  -12.0213   14.1211   69.8849 C   0  0  1  0  0  0  0  0  0  0  0  0
  -11.7586   16.2190   71.1116 N   0  0  0  0  0  0  0  0  0  0  0  0
  -10.9329    9.8785   70.8262 N   0  0  0  0  0  0  0  0  0  0  0  0
  -11.2286   12.9338   70.1109 N   0  0  0  0  0  0  0  0  0  0  0  0
  -13.5234    8.7536   73.1006 N   0  3  0  0  0  0  0  0  0  0  0  0
   -9.4209   10.6402   69.2145 O   0  0  0  0  0  0  0  0  0  0  0  0
  -12.2454   11.5648   68.5214 O   0  0  0  0  0  0  0  0  0  0  0  0
  -13.2086   14.6569   74.3552 H   0  0  0  0  0  0  0  0  0  0  0  0
  -12.4793   17.0415   74.3213 H   0  0  0  0  0  0  0  0  0  0  0  0
   -9.0414   12.1166   65.8496 H   0  0  0  0  0  0  0  0  0  0  0  0
  -12.9960   13.3144   64.6316 H   0  0  0  0  0  0  0  0  0  0  0  0
   -9.2796   13.4343   67.9193 H   0  0  0  0  0  0  0  0  0  0  0  0
  -13.2327   14.6354   66.7004 H   0  0  0  0  0  0  0  0  0  0  0  0
  -12.9990   13.2870   72.2920 H   0  0  0  0  0  0  0  0  0  0  0  0
  -11.5568   17.9659   72.1889 H   0  0  0  0  0  0  0  0  0  0  0  0
  -12.9961    9.7548   70.7274 H   0  0  0  0  0  0  0  0  0  0  0  0
  -12.3931   11.1198   71.6962 H   0  0  0  0  0  0  0  0  0  0  0  0
   -9.4084    9.1594   72.0274 H   0  0  0  0  0  0  0  0  0  0  0  0
   -9.7636    8.1299   70.6219 H   0  0  0  0  0  0  0  0  0  0  0  0
  -11.7381    9.7180   73.5238 H   0  0  0  0  0  0  0  0  0  0  0  0
  -11.2198   10.8066   64.0096 H   0  0  0  0  0  0  0  0  0  0  0  0
  -11.4313   12.2775   63.0281 H   0  0  0  0  0  0  0  0  0  0  0  0
   -9.8132   11.7861   63.5260 H   0  0  0  0  0  0  0  0  0  0  0  0
  -11.3911    6.7880   74.0331 H   0  0  0  0  0  0  0  0  0  0  0  0
  -10.1421    8.0465   74.0918 H   0  0  0  0  0  0  0  0  0  0  0  0
   -9.8844    6.5857   73.1184 H   0  0  0  0  0  0  0  0  0  0  0  0
  -12.7106    6.4199   71.9877 H   0  0  0  0  0  0  0  0  0  0  0  0
  -11.2394    6.2329   71.0141 H   0  0  0  0  0  0  0  0  0  0  0  0
  -12.4625    7.4322   70.5519 H   0  0  0  0  0  0  0  0  0  0  0  0
  -12.0588   15.7925   68.4881 H   0  0  0  0  0  0  0  0  0  0  0  0
  -10.4445   15.3570   68.9937 H   0  0  0  0  0  0  0  0  0  0  0  0
  -13.0177   13.7712   69.5862 H   0  0  0  0  0  0  0  0  0  0  0  0
  -10.5010   12.9590   70.8195 H   0  0  0  0  0  0  0  0  0  0  0  0
  -13.8468    7.9315   72.5725 H   0  0  0  0  0  0  0  0  0  0  0  0
  -14.2119    9.5045   72.9529 H   0  0  0  0  0  0  0  0  0  0  0  0
  -13.5472    8.5065   74.0996 H   0  0  0  0  0  0  0  0  0  0  0  0
  1  2  2  0  0  0  0
  1  7  1  0  0  0  0
  2  8  1  0  0  0  0
  3  5  1  0  0  0  0
  3  9  2  0  0  0  0
  4  6  2  0  0  0  0
  4  9  1  0  0  0  0
  5 10  2  0  0  0  0
  6 10  1  0  0  0  0
  7 11  2  0  0  0  0
  8 23  2  0  0  0  0
  9 18  1  0  0  0  0
 10 21  1  0  0  0  0
 11 22  1  0  0  0  0
 11 23  1  0  0  0  0
 12 13  1  0  0  0  0
 12 24  1  0  0  0  0
 12 27  2  0  0  0  0
 13 25  1  0  0  0  0
 13 28  2  0  0  0  0
 14 16  1  0  0  0  0
 14 24  1  0  0  0  0
 15 17  1  0  0  0  0
 15 24  1  0  0  0  0
 16 17  1  0  0  0  0
 16 26  1  1  0  0  0
 17 19  1  0  0  0  0
 17 20  1  0  0  0  0
 21 22  1  1  0  0  0
 22 25  1  0  0  0  0
  1 29  1  0  0  0  0
  2 30  1  0  0  0  0
  3 31  1  0  0  0  0
  4 32  1  0  0  0  0
  5 33  1  0  0  0  0
  6 34  1  0  0  0  0
  7 35  1  0  0  0  0
  8 36  1  0  0  0  0
 14 37  1  0  0  0  0
 14 38  1  0  0  0  0
 15 39  1  0  0  0  0
 15 40  1  0  0  0  0
 16 41  1  0  0  0  0
 18 42  1  0  0  0  0
 18 43  1  0  0  0  0
 18 44  1  0  0  0  0
 19 45  1  0  0  0  0
 19 46  1  0  0  0  0
 19 47  1  0  0  0  0
 20 48  1  0  0  0  0
 20 49  1  0  0  0  0
 20 50  1  0  0  0  0
 21 51  1  0  0  0  0
 21 52  1  0  0  0  0
 22 53  1  0  0  0  0
 25 54  1  0  0  0  0
 26 55  1  0  0  0  0
 26 56  1  0  0  0  0
 26 57  1  0  0  0  0
M  CHG  1  26   1
M  END
>  <idnumber>
Z3013305846

>  <Chemgauss4>
-14.2658014297485

>  <Hetero-Bemis-Murcko>
c1ccc(cc1)CC(c2ccccn2)NCCN3CCCC3

>  <Hetero-Bemis-Murcko>
c1ccc(cc1)CC(c2ccccn2)NCCN3CCCC3

>  <MW>
380.492

>  <HBD>
2

>  <HBA>
4

>  <RotBonds>
4

>  <XLogP>
1.53799986839294

>  <sLogP>
1.986

>  <TPSA>
89.9400024414062

>  <FSP3>
0.409

>  <QED>
0.794

$$$$
Z2366551533
  -OEChem-04242015583D

 50 52  0     1  0  0  0  0  0999 V2000
  -12.8043   16.2928   73.4110 C   0  0  0  0  0  0  0  0  0  0  0  0
  -13.6849   15.2654   73.0730 C   0  0  0  0  0  0  0  0  0  0  0  0
  -11.7053   16.5657   72.5964 C   0  0  0  0  0  0  0  0  0  0  0  0
  -13.4667   14.5106   71.9204 C   0  0  0  0  0  0  0  0  0  0  0  0
  -11.4870   15.8110   71.4438 C   0  0  0  0  0  0  0  0  0  0  0  0
  -12.4808   13.5243   65.4265 C   0  0  0  0  0  0  0  0  0  0  0  0
  -11.2082   13.0301   65.4832 C   0  0  0  0  0  0  0  0  0  0  0  0
  -12.3677   14.7834   71.1058 C   0  0  0  0  0  0  0  0  0  0  0  0
  -11.5958   14.1364   67.3611 C   0  0  0  0  0  0  0  0  0  0  0  0
  -10.6385   10.5176   69.9352 C   0  0  0  0  0  0  0  0  0  0  0  0
  -11.5238   11.5991   69.4371 C   0  0  0  0  0  0  0  0  0  0  0  0
  -10.4439    8.6037   71.5024 C   0  0  0  0  0  0  0  0  0  0  0  0
  -12.5165    9.8379   71.4917 C   0  0  0  0  0  0  0  0  0  0  0  0
  -11.4895    7.8019   72.2872 C   0  0  1  0  0  0  0  0  0  0  0  0
  -12.4709    8.9099   72.6951 C   0  0  2  0  0  0  0  0  0  0  0  0
  -12.0841    6.6887   71.4232 C   0  0  0  0  0  0  0  0  0  0  0  0
  -11.4175   14.7524   68.7300 C   0  0  0  0  0  0  0  0  0  0  0  0
  -12.1292   13.9617   69.8505 C   0  0  1  0  0  0  0  0  0  0  0  0
  -12.6940   14.2039   66.6016 N   0  0  0  0  0  0  0  0  0  0  0  0
  -10.6843   13.4242   66.6908 N   0  3  0  0  0  0  0  0  0  0  0  0
  -11.1809    9.7151   70.9132 N   0  0  0  0  0  0  0  0  0  0  0  0
  -11.3743   12.7666   70.1518 N   0  0  0  0  0  0  0  0  0  0  0  0
  -13.8131    8.4145   73.0393 N   0  3  0  0  0  0  0  0  0  0  0  0
   -9.5278   10.4426   69.4293 O   0  0  0  0  0  0  0  0  0  0  0  0
  -12.2711   11.3966   68.4925 O   0  0  0  0  0  0  0  0  0  0  0  0
  -12.9751   16.8813   74.3077 H   0  0  0  0  0  0  0  0  0  0  0  0
  -14.5413   15.0535   73.7066 H   0  0  0  0  0  0  0  0  0  0  0  0
  -11.0201   17.3663   72.8586 H   0  0  0  0  0  0  0  0  0  0  0  0
  -14.1580   13.7119   71.6650 H   0  0  0  0  0  0  0  0  0  0  0  0
  -10.6281   16.0306   70.8152 H   0  0  0  0  0  0  0  0  0  0  0  0
  -13.2832   13.4955   64.7166 H   0  0  0  0  0  0  0  0  0  0  0  0
  -10.5834   12.4471   64.8364 H   0  0  0  0  0  0  0  0  0  0  0  0
   -9.6942    9.0354   72.1758 H   0  0  0  0  0  0  0  0  0  0  0  0
   -9.9228    8.0317   70.7281 H   0  0  0  0  0  0  0  0  0  0  0  0
  -13.2358    9.5166   70.7300 H   0  0  0  0  0  0  0  0  0  0  0  0
  -12.7256   10.8769   71.7641 H   0  0  0  0  0  0  0  0  0  0  0  0
  -11.0349    7.3465   73.1746 H   0  0  0  0  0  0  0  0  0  0  0  0
  -12.0931    9.4436   73.5758 H   0  0  0  0  0  0  0  0  0  0  0  0
  -12.5418    7.1187   70.5347 H   0  0  0  0  0  0  0  0  0  0  0  0
  -12.8397    6.1485   71.9897 H   0  0  0  0  0  0  0  0  0  0  0  0
  -11.2988    5.9979   71.1233 H   0  0  0  0  0  0  0  0  0  0  0  0
  -11.8142   15.7765   68.6873 H   0  0  0  0  0  0  0  0  0  0  0  0
  -10.3471   14.8648   68.9472 H   0  0  0  0  0  0  0  0  0  0  0  0
  -13.1014   13.6217   69.4712 H   0  0  0  0  0  0  0  0  0  0  0  0
  -13.5534   14.6837   66.8549 H   0  0  0  0  0  0  0  0  0  0  0  0
   -9.7486   13.2077   67.0237 H   0  0  0  0  0  0  0  0  0  0  0  0
  -10.7089   12.7887   70.9192 H   0  0  0  0  0  0  0  0  0  0  0  0
  -14.3835    9.1456   73.4875 H   0  0  0  0  0  0  0  0  0  0  0  0
  -13.7669    7.6191   73.6922 H   0  0  0  0  0  0  0  0  0  0  0  0
  -14.3250    8.0958   72.2042 H   0  0  0  0  0  0  0  0  0  0  0  0
  1  2  2  0  0  0  0
  1  3  1  0  0  0  0
  2  4  1  0  0  0  0
  3  5  2  0  0  0  0
  4  8  2  0  0  0  0
  5  8  1  0  0  0  0
  6  7  2  0  0  0  0
  6 19  1  0  0  0  0
  7 20  1  0  0  0  0
  8 18  1  0  0  0  0
  9 17  1  0  0  0  0
  9 19  1  0  0  0  0
  9 20  2  0  0  0  0
 10 11  1  0  0  0  0
 10 21  1  0  0  0  0
 10 24  2  0  0  0  0
 11 22  1  0  0  0  0
 11 25  2  0  0  0  0
 12 14  1  0  0  0  0
 12 21  1  0  0  0  0
 13 15  1  0  0  0  0
 13 21  1  0  0  0  0
 14 15  1  0  0  0  0
 14 16  1  6  0  0  0
 15 23  1  1  0  0  0
 17 18  1  6  0  0  0
 18 22  1  0  0  0  0
  1 26  1  0  0  0  0
  2 27  1  0  0  0  0
  3 28  1  0  0  0  0
  4 29  1  0  0  0  0
  5 30  1  0  0  0  0
  6 31  1  0  0  0  0
  7 32  1  0  0  0  0
 12 33  1  0  0  0  0
 12 34  1  0  0  0  0
 13 35  1  0  0  0  0
 13 36  1  0  0  0  0
 14 37  1  0  0  0  0
 15 38  1  0  0  0  0
 16 39  1  0  0  0  0
 16 40  1  0  0  0  0
 16 41  1  0  0  0  0
 17 42  1  0  0  0  0
 17 43  1  0  0  0  0
 18 44  1  0  0  0  0
 19 45  1  0  0  0  0
 20 46  1  0  0  0  0
 22 47  1  0  0  0  0
 23 48  1  0  0  0  0
 23 49  1  0  0  0  0
 23 50  1  0  0  0  0
M  CHG  2  20   1  23   1
M  END
>  <idnumber>
Z2366551533

>  <Chemgauss4>
-14.26012134552

>  <Hetero-Bemis-Murcko>
c1ccc(cc1)C(Cc2[nH]cc[nH+]2)NCCN3CCCC3

>  <Hetero-Bemis-Murcko>
c1ccc(cc1)C(Cc2[nH]cc[nH+]2)NCCN3CCCC3

>  <MW>
341.415

>  <HBD>
3

>  <HBA>
4

>  <RotBonds>
4

>  <XLogP>
0.380999743938446

>  <sLogP>
0.615

>  <TPSA>
106.979995727539

>  <FSP3>
0.389

>  <QED>
0.709

$$$$
Z2039356548
  -OEChem-04242015583D

 55 58  0     1  0  0  0  0  0999 V2000
  -12.5090   16.3997   73.2519 C   0  0  0  0  0  0  0  0  0  0  0  0
  -13.4952   15.4542   72.9709 C   0  0  0  0  0  0  0  0  0  0  0  0
  -11.4181   16.5456   72.3949 C   0  0  0  0  0  0  0  0  0  0  0  0
  -13.3905   14.6543   71.8329 C   0  0  0  0  0  0  0  0  0  0  0  0
  -11.3134   15.7457   71.2569 C   0  0  0  0  0  0  0  0  0  0  0  0
  -12.7308   13.4211   65.3399 C   0  0  0  0  0  0  0  0  0  0  0  0
  -11.5102   12.8079   65.3688 C   0  0  0  0  0  0  0  0  0  0  0  0
  -12.2996   14.8001   70.9759 C   0  0  0  0  0  0  0  0  0  0  0  0
  -11.7243   13.9915   67.2272 C   0  0  0  0  0  0  0  0  0  0  0  0
  -13.5567    8.9275   72.3697 C   0  0  0  0  0  0  0  0  0  0  0  0
  -11.0281   10.3603   69.8670 C   0  0  0  0  0  0  0  0  0  0  0  0
  -11.8224   11.5093   69.3688 C   0  0  0  0  0  0  0  0  0  0  0  0
  -12.9033    9.9604   71.4719 C   0  0  0  0  0  0  0  0  0  0  0  0
  -10.1942    6.9278   73.9394 C   0  0  0  0  0  0  0  0  0  0  0  0
   -9.3193    8.1277   73.5904 C   0  0  0  0  0  0  0  0  0  0  0  0
  -10.8582    6.3411   72.6959 C   0  0  0  0  0  0  0  0  0  0  0  0
  -10.1038    9.1958   72.8322 C   0  0  0  0  0  0  0  0  0  0  0  0
  -11.6489    7.3857   71.8996 C   0  0  2  0  0  0  0  0  0  0  0  0
  -10.7900    8.6122   71.5854 C   0  0  1  0  0  0  0  0  0  0  0  0
  -11.4403   14.6202   68.5723 C   0  0  0  0  0  0  0  0  0  0  0  0
  -12.1848   13.9291   69.7365 C   0  0  1  0  0  0  0  0  0  0  0  0
  -12.8369   14.1463   66.5022 N   0  0  0  0  0  0  0  0  0  0  0  0
  -10.9090   13.1787   66.5474 N   0  3  0  0  0  0  0  0  0  0  0  0
  -12.8649    7.7645   72.5996 N   0  0  0  0  0  0  0  0  0  0  0  0
  -11.5974    9.6297   70.9073 N   0  0  0  0  0  0  0  0  0  0  0  0
  -11.5375   12.6744   70.0458 N   0  0  0  0  0  0  0  0  0  0  0  0
  -14.6554    9.1533   72.8808 O   0  0  0  0  0  0  0  0  0  0  0  0
   -9.9501   10.1809   69.3160 O   0  0  0  0  0  0  0  0  0  0  0  0
  -12.6186   11.3577   68.4545 O   0  0  0  0  0  0  0  0  0  0  0  0
  -12.5914   17.0234   74.1373 H   0  0  0  0  0  0  0  0  0  0  0  0
  -14.3452   15.3412   73.6375 H   0  0  0  0  0  0  0  0  0  0  0  0
  -10.6507   17.2824   72.6128 H   0  0  0  0  0  0  0  0  0  0  0  0
  -14.1635   13.9200   71.6221 H   0  0  0  0  0  0  0  0  0  0  0  0
  -10.4599   15.8662   70.5950 H   0  0  0  0  0  0  0  0  0  0  0  0
  -13.5567   13.4528   64.6574 H   0  0  0  0  0  0  0  0  0  0  0  0
  -10.9669   12.1519   64.7182 H   0  0  0  0  0  0  0  0  0  0  0  0
  -13.5994   10.1737   70.6535 H   0  0  0  0  0  0  0  0  0  0  0  0
  -12.7756   10.8777   72.0585 H   0  0  0  0  0  0  0  0  0  0  0  0
   -9.5839    6.1586   74.4262 H   0  0  0  0  0  0  0  0  0  0  0  0
  -10.9610    7.2298   74.6630 H   0  0  0  0  0  0  0  0  0  0  0  0
   -8.9019    8.5588   74.5073 H   0  0  0  0  0  0  0  0  0  0  0  0
   -8.4710    7.7958   72.9791 H   0  0  0  0  0  0  0  0  0  0  0  0
  -10.0811    5.9172   72.0466 H   0  0  0  0  0  0  0  0  0  0  0  0
  -11.5083    5.5050   72.9808 H   0  0  0  0  0  0  0  0  0  0  0  0
  -10.8451    9.6364   73.5103 H   0  0  0  0  0  0  0  0  0  0  0  0
   -9.4214   10.0029   72.5397 H   0  0  0  0  0  0  0  0  0  0  0  0
  -11.9808    6.9266   70.9594 H   0  0  0  0  0  0  0  0  0  0  0  0
   -9.9953    8.2966   70.8958 H   0  0  0  0  0  0  0  0  0  0  0  0
  -11.7385   15.6765   68.5145 H   0  0  0  0  0  0  0  0  0  0  0  0
  -10.3570   14.6340   68.7515 H   0  0  0  0  0  0  0  0  0  0  0  0
  -13.1977   13.6755   69.3984 H   0  0  0  0  0  0  0  0  0  0  0  0
  -13.6371   14.7127   66.7701 H   0  0  0  0  0  0  0  0  0  0  0  0
   -9.9873   12.8810   66.8557 H   0  0  0  0  0  0  0  0  0  0  0  0
  -13.2259    7.1280   73.3038 H   0  0  0  0  0  0  0  0  0  0  0  0
  -10.8467   12.6509   70.7903 H   0  0  0  0  0  0  0  0  0  0  0  0
  1  2  2  0  0  0  0
  1  3  1  0  0  0  0
  2  4  1  0  0  0  0
  3  5  2  0  0  0  0
  4  8  2  0  0  0  0
  5  8  1  0  0  0  0
  6  7  2  0  0  0  0
  6 22  1  0  0  0  0
  7 23  1  0  0  0  0
  8 21  1  0  0  0  0
  9 20  1  0  0  0  0
  9 22  1  0  0  0  0
  9 23  2  0  0  0  0
 10 13  1  0  0  0  0
 10 24  1  0  0  0  0
 10 27  2  0  0  0  0
 11 12  1  0  0  0  0
 11 25  1  0  0  0  0
 11 28  2  0  0  0  0
 12 26  1  0  0  0  0
 12 29  2  0  0  0  0
 13 25  1  0  0  0  0
 14 15  1  0  0  0  0
 14 16  1  0  0  0  0
 15 17  1  0  0  0  0
 16 18  1  1  0  0  0
 17 19  1  6  0  0  0
 18 19  1  0  0  0  0
 18 24  1  0  0  0  0
 19 25  1  0  0  0  0
 20 21  1  6  0  0  0
 21 26  1  0  0  0  0
  1 30  1  0  0  0  0
  2 31  1  0  0  0  0
  3 32  1  0  0  0  0
  4 33  1  0  0  0  0
  5 34  1  0  0  0  0
  6 35  1  0  0  0  0
  7 36  1  0  0  0  0
 13 37  1  0  0  0  0
 13 38  1  0  0  0  0
 14 39  1  0  0  0  0
 14 40  1  0  0  0  0
 15 41  1  0  0  0  0
 15 42  1  0  0  0  0
 16 43  1  0  0  0  0
 16 44  1  0  0  0  0
 17 45  1  0  0  0  0
 17 46  1  0  0  0  0
 18 47  1  0  0  0  0
 19 48  1  0  0  0  0
 20 49  1  0  0  0  0
 20 50  1  0  0  0  0
 21 51  1  0  0  0  0
 22 52  1  0  0  0  0
 23 53  1  0  0  0  0
 24 54  1  0  0  0  0
 26 55  1  0  0  0  0
M  CHG  1  23   1
M  END
>  <idnumber>
Z2039356548

>  <Chemgauss4>
-14.2279424667358

>  <Hetero-Bemis-Murcko>
c1ccc(cc1)C(Cc2[nH]cc[nH+]2)NCCN3CCNC4C3CCCC4

>  <Hetero-Bemis-Murcko>
c1ccc(cc1)C(Cc2[nH]cc[nH+]2)NCCN3CCNC4C3CCCC4

>  <MW>
395.463

>  <HBD>
3

>  <HBA>
4

>  <RotBonds>
4

>  <XLogP>
1.17999982833862

>  <sLogP>
1.079

>  <TPSA>
108.439994812012

>  <FSP3>
0.429

>  <QED>
0.674

$$$$
Z2445657428
  -OEChem-04242015583D

 53 56  0     1  0  0  0  0  0999 V2000
  -12.6609   15.9758   73.1064 C   0  0  0  0  0  0  0  0  0  0  0  0
  -13.5464   14.9429   72.7992 C   0  0  0  0  0  0  0  0  0  0  0  0
  -11.6006   16.2642   72.2470 C   0  0  0  0  0  0  0  0  0  0  0  0
  -13.3717   14.1982   71.6328 C   0  0  0  0  0  0  0  0  0  0  0  0
  -11.4260   15.5196   71.0806 C   0  0  0  0  0  0  0  0  0  0  0  0
  -10.7944   12.9399   66.4829 C   0  0  0  0  0  0  0  0  0  0  0  0
  -12.8136   14.2453   66.2459 C   0  0  0  0  0  0  0  0  0  0  0  0
  -11.0087   12.3798   65.2236 C   0  0  0  0  0  0  0  0  0  0  0  0
  -13.0278   13.6852   64.9865 C   0  0  0  0  0  0  0  0  0  0  0  0
  -11.6969   13.8726   66.9941 C   0  0  0  0  0  0  0  0  0  0  0  0
  -12.3115   14.4865   70.7734 C   0  0  0  0  0  0  0  0  0  0  0  0
  -12.1254   12.7525   64.4753 C   0  0  0  0  0  0  0  0  0  0  0  0
  -10.5979   10.2449   69.4976 C   0  0  0  0  0  0  0  0  0  0  0  0
  -11.5128   11.3213   69.0466 C   0  0  0  0  0  0  0  0  0  0  0  0
  -11.2259    6.3383   72.5538 C   0  0  0  0  0  0  0  0  0  0  0  0
  -10.9639    7.4370   73.5393 C   0  0  0  0  0  0  0  0  0  0  0  0
  -12.4200    9.6350   71.0629 C   0  0  0  0  0  0  0  0  0  0  0  0
  -10.3594    8.3769   71.1813 C   0  0  0  0  0  0  0  0  0  0  0  0
  -12.7343    8.3208   71.7713 C   0  0  1  0  0  0  0  0  0  0  0  0
  -11.3708    7.7781   72.1221 C   0  0  0  0  0  0  0  0  0  0  0  0
  -11.4649   14.4806   68.3586 C   0  0  0  0  0  0  0  0  0  0  0  0
  -12.1205   13.6757   69.5030 C   0  0  1  0  0  0  0  0  0  0  0  0
  -11.0935    9.4377   70.4973 N   0  0  0  0  0  0  0  0  0  0  0  0
  -11.3429   12.4854   69.7626 N   0  0  0  0  0  0  0  0  0  0  0  0
  -13.6930    8.5788   72.8723 N   0  3  0  0  0  0  0  0  0  0  0  0
   -9.5096   10.1829   68.9442 O   0  0  0  0  0  0  0  0  0  0  0  0
  -12.2988   11.1190   68.1336 O   0  0  0  0  0  0  0  0  0  0  0  0
  -12.3298   12.2167   63.2648 F   0  0  0  0  0  0  0  0  0  0  0  0
  -12.7978   16.5565   74.0140 H   0  0  0  0  0  0  0  0  0  0  0  0
  -14.3726   14.7189   73.4677 H   0  0  0  0  0  0  0  0  0  0  0  0
  -10.9116   17.0691   72.4853 H   0  0  0  0  0  0  0  0  0  0  0  0
  -14.0665   13.3950   71.4017 H   0  0  0  0  0  0  0  0  0  0  0  0
  -10.5970   15.7513   70.4170 H   0  0  0  0  0  0  0  0  0  0  0  0
   -9.9219   12.6428   67.0588 H   0  0  0  0  0  0  0  0  0  0  0  0
  -13.5220   14.9715   66.6360 H   0  0  0  0  0  0  0  0  0  0  0  0
  -10.3059   11.6543   64.8252 H   0  0  0  0  0  0  0  0  0  0  0  0
  -13.8973   13.9748   64.4039 H   0  0  0  0  0  0  0  0  0  0  0  0
  -10.3745    5.7739   72.1926 H   0  0  0  0  0  0  0  0  0  0  0  0
  -12.1240    5.7473   72.6887 H   0  0  0  0  0  0  0  0  0  0  0  0
  -11.6746    7.5636   74.3460 H   0  0  0  0  0  0  0  0  0  0  0  0
   -9.9356    7.6079   73.8360 H   0  0  0  0  0  0  0  0  0  0  0  0
  -13.1453    9.8946   70.2856 H   0  0  0  0  0  0  0  0  0  0  0  0
  -12.3387   10.4762   71.7621 H   0  0  0  0  0  0  0  0  0  0  0  0
   -9.5059    8.8202   71.7043 H   0  0  0  0  0  0  0  0  0  0  0  0
  -10.0019    7.6570   70.4380 H   0  0  0  0  0  0  0  0  0  0  0  0
  -13.2362    7.6333   71.0800 H   0  0  0  0  0  0  0  0  0  0  0  0
  -11.8719   15.5014   68.3406 H   0  0  0  0  0  0  0  0  0  0  0  0
  -10.3870   14.6011   68.5301 H   0  0  0  0  0  0  0  0  0  0  0  0
  -13.1052   13.3297   69.1636 H   0  0  0  0  0  0  0  0  0  0  0  0
  -10.6451   12.5083   70.5006 H   0  0  0  0  0  0  0  0  0  0  0  0
  -13.8916    9.5815   72.9597 H   0  0  0  0  0  0  0  0  0  0  0  0
  -13.3181    8.2522   73.7698 H   0  0  0  0  0  0  0  0  0  0  0  0
  -14.5822    8.0944   72.7068 H   0  0  0  0  0  0  0  0  0  0  0  0
  1  2  2  0  0  0  0
  1  3  1  0  0  0  0
  2  4  1  0  0  0  0
  3  5  2  0  0  0  0
  4 11  2  0  0  0  0
  5 11  1  0  0  0  0
  6  8  1  0  0  0  0
  6 10  2  0  0  0  0
  7  9  2  0  0  0  0
  7 10  1  0  0  0  0
  8 12  2  0  0  0  0
  9 12  1  0  0  0  0
 10 21  1  0  0  0  0
 11 22  1  0  0  0  0
 12 28  1  0  0  0  0
 13 14  1  0  0  0  0
 13 23  1  0  0  0  0
 13 26  2  0  0  0  0
 14 24  1  0  0  0  0
 14 27  2  0  0  0  0
 15 16  1  0  0  0  0
 15 20  1  0  0  0  0
 16 20  1  0  0  0  0
 17 19  1  0  0  0  0
 17 23  1  0  0  0  0
 18 20  1  0  0  0  0
 18 23  1  0  0  0  0
 19 20  1  0  0  0  0
 19 25  1  6  0  0  0
 21 22  1  6  0  0  0
 22 24  1  0  0  0  0
  1 29  1  0  0  0  0
  2 30  1  0  0  0  0
  3 31  1  0  0  0  0
  4 32  1  0  0  0  0
  5 33  1  0  0  0  0
  6 34  1  0  0  0  0
  7 35  1  0  0  0  0
  8 36  1  0  0  0  0
  9 37  1  0  0  0  0
 15 38  1  0  0  0  0
 15 39  1  0  0  0  0
 16 40  1  0  0  0  0
 16 41  1  0  0  0  0
 17 42  1  0  0  0  0
 17 43  1  0  0  0  0
 18 44  1  0  0  0  0
 18 45  1  0  0  0  0
 19 46  1  0  0  0  0
 21 47  1  0  0  0  0
 21 48  1  0  0  0  0
 22 49  1  0  0  0  0
 24 50  1  0  0  0  0
 25 51  1  0  0  0  0
 25 52  1  0  0  0  0
 25 53  1  0  0  0  0
M  CHG  1  25   1
M  END
>  <idnumber>
Z2445657428

>  <Chemgauss4>
-14.219108581543

>  <Hetero-Bemis-Murcko>
c1ccc(cc1)CC(c2ccccc2)NCCN3CCC4(C3)CC4

>  <Hetero-Bemis-Murcko>
c1ccc(cc1)CC(c2ccccc2)NCCN3CCC4(C3)CC4

>  <MW>
381.451

>  <HBD>
2

>  <HBA>
3

>  <RotBonds>
4

>  <XLogP>
2.24799966812134

>  <sLogP>
2.175

>  <TPSA>
77.0499954223633

>  <FSP3>
0.364

>  <QED>
0.797

$$$$
Z2140592349
  -OEChem-04242015583D

 56 59  0     1  0  0  0  0  0999 V2000
  -13.2560   14.7514   73.3684 C   0  0  0  0  0  0  0  0  0  0  0  0
  -12.7384   16.0377   73.4726 C   0  0  0  0  0  0  0  0  0  0  0  0
  -10.0039   13.1111   67.3744 C   0  0  0  0  0  0  0  0  0  0  0  0
  -12.0636   14.0138   66.4915 C   0  0  0  0  0  0  0  0  0  0  0  0
   -9.8007   12.4113   66.1850 C   0  0  0  0  0  0  0  0  0  0  0  0
  -11.8604   13.3141   65.3021 C   0  0  0  0  0  0  0  0  0  0  0  0
  -13.0748   14.0282   72.1947 C   0  0  0  0  0  0  0  0  0  0  0  0
  -12.0529   16.5512   72.3835 C   0  0  0  0  0  0  0  0  0  0  0  0
  -11.1354   13.9123   67.5277 C   0  0  0  0  0  0  0  0  0  0  0  0
  -10.7289   12.5128   65.1489 C   0  0  0  0  0  0  0  0  0  0  0  0
  -12.3744   14.6317   71.1628 C   0  0  0  0  0  0  0  0  0  0  0  0
  -13.3755    8.9490   72.3895 C   0  0  0  0  0  0  0  0  0  0  0  0
  -10.9261   10.3265   69.7760 C   0  0  0  0  0  0  0  0  0  0  0  0
  -11.7134   11.4984   69.3229 C   0  0  0  0  0  0  0  0  0  0  0  0
  -12.9014    9.7553   71.1958 C   0  0  0  0  0  0  0  0  0  0  0  0
  -11.0888    5.4285   72.0177 C   0  0  0  0  0  0  0  0  0  0  0  0
  -10.8730    5.7290   70.5379 C   0  0  0  0  0  0  0  0  0  0  0  0
  -10.5394    6.5465   72.9008 C   0  0  0  0  0  0  0  0  0  0  0  0
  -11.4639    7.0808   70.1444 C   0  0  0  0  0  0  0  0  0  0  0  0
  -11.1035    7.9231   72.5302 C   0  0  1  0  0  0  0  0  0  0  0  0
  -10.9274    8.2120   71.0383 C   0  0  2  0  0  0  0  0  0  0  0  0
  -11.3551   14.6722   68.8160 C   0  0  0  0  0  0  0  0  0  0  0  0
  -12.1575   13.8712   69.8656 C   0  0  1  0  0  0  0  0  0  0  0  0
  -11.8569   15.8789   71.2271 N   0  0  0  0  0  0  0  0  0  0  0  0
  -12.4980    8.0382   72.9225 N   0  0  0  0  0  0  0  0  0  0  0  0
  -11.5544    9.4915   70.6966 N   0  0  0  0  0  0  0  0  0  0  0  0
  -11.5018   12.6070   70.1123 N   0  0  0  0  0  0  0  0  0  0  0  0
  -14.5124    9.1105   72.8377 O   0  0  0  0  0  0  0  0  0  0  0  0
   -9.8103   10.2135   69.2866 O   0  0  0  0  0  0  0  0  0  0  0  0
  -12.4439   11.4100   68.3476 O   0  0  0  0  0  0  0  0  0  0  0  0
  -10.4780   11.6496   63.6817 Cl  0  0  0  0  0  0  0  0  0  0  0  0
  -13.7995   14.3136   74.2002 H   0  0  0  0  0  0  0  0  0  0  0  0
  -12.8675   16.6199   74.3778 H   0  0  0  0  0  0  0  0  0  0  0  0
   -9.2761   13.0266   68.1772 H   0  0  0  0  0  0  0  0  0  0  0  0
  -12.9477   14.6361   66.6029 H   0  0  0  0  0  0  0  0  0  0  0  0
   -8.9142   11.7911   66.0798 H   0  0  0  0  0  0  0  0  0  0  0  0
  -12.5923   13.4027   64.5033 H   0  0  0  0  0  0  0  0  0  0  0  0
  -13.4736   13.0238   72.1007 H   0  0  0  0  0  0  0  0  0  0  0  0
  -11.6297   17.5498   72.4143 H   0  0  0  0  0  0  0  0  0  0  0  0
  -13.5936    9.5615   70.3680 H   0  0  0  0  0  0  0  0  0  0  0  0
  -12.9776   10.8151   71.4623 H   0  0  0  0  0  0  0  0  0  0  0  0
  -12.1594    5.2928   72.2129 H   0  0  0  0  0  0  0  0  0  0  0  0
  -10.5972    4.4834   72.2751 H   0  0  0  0  0  0  0  0  0  0  0  0
   -9.7984    5.7231   70.3171 H   0  0  0  0  0  0  0  0  0  0  0  0
  -11.3273    4.9379   69.9308 H   0  0  0  0  0  0  0  0  0  0  0  0
  -10.7421    6.3214   73.9548 H   0  0  0  0  0  0  0  0  0  0  0  0
   -9.4468    6.5740   72.7980 H   0  0  0  0  0  0  0  0  0  0  0  0
  -11.2214    7.2868   69.0949 H   0  0  0  0  0  0  0  0  0  0  0  0
  -12.5573    7.0212   70.2121 H   0  0  0  0  0  0  0  0  0  0  0  0
  -10.5690    8.6851   73.1119 H   0  0  0  0  0  0  0  0  0  0  0  0
   -9.8509    8.3002   70.8387 H   0  0  0  0  0  0  0  0  0  0  0  0
  -11.8896   15.5997   68.5671 H   0  0  0  0  0  0  0  0  0  0  0  0
  -10.3878   14.9950   69.2231 H   0  0  0  0  0  0  0  0  0  0  0  0
  -13.1396   13.6283   69.4400 H   0  0  0  0  0  0  0  0  0  0  0  0
  -12.8453    7.4046   73.6363 H   0  0  0  0  0  0  0  0  0  0  0  0
  -10.8609   12.5333   70.8971 H   0  0  0  0  0  0  0  0  0  0  0  0
  1  2  2  0  0  0  0
  1  7  1  0  0  0  0
  2  8  1  0  0  0  0
  3  5  1  0  0  0  0
  3  9  2  0  0  0  0
  4  6  2  0  0  0  0
  4  9  1  0  0  0  0
  5 10  2  0  0  0  0
  6 10  1  0  0  0  0
  7 11  2  0  0  0  0
  8 24  2  0  0  0  0
  9 22  1  0  0  0  0
 10 31  1  0  0  0  0
 11 23  1  0  0  0  0
 11 24  1  0  0  0  0
 12 15  1  0  0  0  0
 12 25  1  0  0  0  0
 12 28  2  0  0  0  0
 13 14  1  0  0  0  0
 13 26  1  0  0  0  0
 13 29  2  0  0  0  0
 14 27  1  0  0  0  0
 14 30  2  0  0  0  0
 15 26  1  0  0  0  0
 16 17  1  0  0  0  0
 16 18  1  0  0  0  0
 17 19  1  0  0  0  0
 18 20  1  6  0  0  0
 19 21  1  1  0  0  0
 20 21  1  0  0  0  0
 20 25  1  0  0  0  0
 21 26  1  0  0  0  0
 22 23  1  6  0  0  0
 23 27  1  0  0  0  0
  1 32  1  0  0  0  0
  2 33  1  0  0  0  0
  3 34  1  0  0  0  0
  4 35  1  0  0  0  0
  5 36  1  0  0  0  0
  6 37  1  0  0  0  0
  7 38  1  0  0  0  0
  8 39  1  0  0  0  0
 15 40  1  0  0  0  0
 15 41  1  0  0  0  0
 16 42  1  0  0  0  0
 16 43  1  0  0  0  0
 17 44  1  0  0  0  0
 17 45  1  0  0  0  0
 18 46  1  0  0  0  0
 18 47  1  0  0  0  0
 19 48  1  0  0  0  0
 19 49  1  0  0  0  0
 20 50  1  0  0  0  0
 21 51  1  0  0  0  0
 22 52  1  0  0  0  0
 22 53  1  0  0  0  0
 23 54  1  0  0  0  0
 25 55  1  0  0  0  0
 27 56  1  0  0  0  0
M  END
>  <idnumber>
Z2140592349

>  <Chemgauss4>
-14.1896648406982

>  <Hetero-Bemis-Murcko>
c1ccc(cc1)CC(c2ccccn2)NCCN3CCNC4C3CCCC4

>  <Hetero-Bemis-Murcko>
c1ccc(cc1)CC(c2ccccn2)NCCN3CCNC4C3CCCC4

>  <MW>
440.931

>  <HBD>
2

>  <HBA>
4

>  <RotBonds>
4

>  <XLogP>
2.0939998626709

>  <sLogP>
2.405

>  <TPSA>
91.3999938964844

>  <FSP3>
0.391

>  <QED>
0.714

$$$$
Z2861623177
  -OEChem-04242015583D

 51 53  0     1  0  0  0  0  0999 V2000
  -13.1227   14.9435   73.3528 C   0  0  0  0  0  0  0  0  0  0  0  0
  -12.6030   16.2298   73.4448 C   0  0  0  0  0  0  0  0  0  0  0  0
  -10.3113   13.4374   67.1060 C   0  0  0  0  0  0  0  0  0  0  0  0
  -12.4329   14.3478   66.3939 C   0  0  0  0  0  0  0  0  0  0  0  0
  -10.1932   12.7622   65.8911 C   0  0  0  0  0  0  0  0  0  0  0  0
  -12.3148   13.6727   65.1790 C   0  0  0  0  0  0  0  0  0  0  0  0
  -13.0253   14.2445   72.1548 C   0  0  0  0  0  0  0  0  0  0  0  0
  -12.0005   16.7680   72.3192 C   0  0  0  0  0  0  0  0  0  0  0  0
  -11.4312   14.2301   67.3574 C   0  0  0  0  0  0  0  0  0  0  0  0
  -11.1949   12.8799   64.9276 C   0  0  0  0  0  0  0  0  0  0  0  0
  -12.4041   14.8716   71.0868 C   0  0  0  0  0  0  0  0  0  0  0  0
  -11.0468   10.6012   69.5120 C   0  0  0  0  0  0  0  0  0  0  0  0
  -11.8691   11.7787   69.1410 C   0  0  0  0  0  0  0  0  0  0  0  0
  -11.6867    8.2620   72.2772 C   0  0  0  0  0  0  0  0  0  0  0  0
  -12.9035    9.9544   71.1016 C   0  0  0  0  0  0  0  0  0  0  0  0
  -13.1034    8.6778   71.8989 C   0  0  2  0  0  0  0  0  0  0  0  0
  -10.8843    8.6206   71.0205 C   0  0  1  0  0  0  0  0  0  0  0  0
  -10.8249    7.4626   70.0261 C   0  0  0  0  0  0  0  0  0  0  0  0
  -11.5588   14.9633   68.6732 C   0  0  0  0  0  0  0  0  0  0  0  0
  -12.2799   14.1379   69.7623 C   0  0  1  0  0  0  0  0  0  0  0  0
  -11.8872   16.1197   71.1383 N   0  0  0  0  0  0  0  0  0  0  0  0
  -11.6022    9.7693   70.4606 N   0  0  0  0  0  0  0  0  0  0  0  0
  -11.6039   12.8721   69.9350 N   0  0  0  0  0  0  0  0  0  0  0  0
  -13.9293    8.9145   73.0951 N   0  3  0  0  0  0  0  0  0  0  0  0
   -9.9673   10.4906   68.9485 O   0  0  0  0  0  0  0  0  0  0  0  0
  -12.6684   11.7060   68.2200 O   0  0  0  0  0  0  0  0  0  0  0  0
  -11.0489   12.0472   63.4290 Cl  0  0  0  0  0  0  0  0  0  0  0  0
  -13.6026   14.4867   74.2131 H   0  0  0  0  0  0  0  0  0  0  0  0
  -12.6676   16.7933   74.3686 H   0  0  0  0  0  0  0  0  0  0  0  0
   -9.5267   13.3404   67.8517 H   0  0  0  0  0  0  0  0  0  0  0  0
  -13.3085   14.9636   66.5818 H   0  0  0  0  0  0  0  0  0  0  0  0
   -9.3148   12.1484   65.7092 H   0  0  0  0  0  0  0  0  0  0  0  0
  -13.1033   13.7737   64.4376 H   0  0  0  0  0  0  0  0  0  0  0  0
  -13.4267   13.2403   72.0699 H   0  0  0  0  0  0  0  0  0  0  0  0
  -11.5794   17.7678   72.3391 H   0  0  0  0  0  0  0  0  0  0  0  0
  -11.3179    8.8561   73.1233 H   0  0  0  0  0  0  0  0  0  0  0  0
  -11.6213    7.2031   72.5461 H   0  0  0  0  0  0  0  0  0  0  0  0
  -13.6839   10.1142   70.3515 H   0  0  0  0  0  0  0  0  0  0  0  0
  -12.8308   10.8448   71.7369 H   0  0  0  0  0  0  0  0  0  0  0  0
  -13.6028    7.9058   71.3029 H   0  0  0  0  0  0  0  0  0  0  0  0
   -9.8624    8.9230   71.2763 H   0  0  0  0  0  0  0  0  0  0  0  0
  -11.8340    7.1509   69.7622 H   0  0  0  0  0  0  0  0  0  0  0  0
  -10.2963    6.6212   70.4710 H   0  0  0  0  0  0  0  0  0  0  0  0
  -10.3012    7.7770   69.1248 H   0  0  0  0  0  0  0  0  0  0  0  0
  -12.1130   15.8930   68.4827 H   0  0  0  0  0  0  0  0  0  0  0  0
  -10.5654   15.2825   69.0152 H   0  0  0  0  0  0  0  0  0  0  0  0
  -13.2896   13.8989   69.4046 H   0  0  0  0  0  0  0  0  0  0  0  0
  -10.9072   12.7859   70.6694 H   0  0  0  0  0  0  0  0  0  0  0  0
  -13.9544    9.9127   73.3453 H   0  0  0  0  0  0  0  0  0  0  0  0
  -13.5664    8.4023   73.9113 H   0  0  0  0  0  0  0  0  0  0  0  0
  -14.9018    8.6099   72.9488 H   0  0  0  0  0  0  0  0  0  0  0  0
  1  2  2  0  0  0  0
  1  7  1  0  0  0  0
  2  8  1  0  0  0  0
  3  5  1  0  0  0  0
  3  9  2  0  0  0  0
  4  6  2  0  0  0  0
  4  9  1  0  0  0  0
  5 10  2  0  0  0  0
  6 10  1  0  0  0  0
  7 11  2  0  0  0  0
  8 21  2  0  0  0  0
  9 19  1  0  0  0  0
 10 27  1  0  0  0  0
 11 20  1  0  0  0  0
 11 21  1  0  0  0  0
 12 13  1  0  0  0  0
 12 22  1  0  0  0  0
 12 25  2  0  0  0  0
 13 23  1  0  0  0  0
 13 26  2  0  0  0  0
 14 16  1  0  0  0  0
 14 17  1  0  0  0  0
 15 16  1  0  0  0  0
 15 22  1  0  0  0  0
 16 24  1  1  0  0  0
 17 18  1  1  0  0  0
 17 22  1  0  0  0  0
 19 20  1  6  0  0  0
 20 23  1  0  0  0  0
  1 28  1  0  0  0  0
  2 29  1  0  0  0  0
  3 30  1  0  0  0  0
  4 31  1  0  0  0  0
  5 32  1  0  0  0  0
  6 33  1  0  0  0  0
  7 34  1  0  0  0  0
  8 35  1  0  0  0  0
 14 36  1  0  0  0  0
 14 37  1  0  0  0  0
 15 38  1  0  0  0  0
 15 39  1  0  0  0  0
 16 40  1  0  0  0  0
 17 41  1  0  0  0  0
 18 42  1  0  0  0  0
 18 43  1  0  0  0  0
 18 44  1  0  0  0  0
 19 45  1  0  0  0  0
 19 46  1  0  0  0  0
 20 47  1  0  0  0  0
 23 48  1  0  0  0  0
 24 49  1  0  0  0  0
 24 50  1  0  0  0  0
 24 51  1  0  0  0  0
M  CHG  1  24   1
M  END
>  <idnumber>
Z2861623177

>  <Chemgauss4>
-14.1591148376465

>  <Hetero-Bemis-Murcko>
c1ccc(cc1)CC(c2ccccn2)NCCN3CCCC3

>  <Hetero-Bemis-Murcko>
c1ccc(cc1)CC(c2ccccn2)NCCN3CCCC3

>  <MW>
386.883

>  <HBD>
2

>  <HBA>
4

>  <RotBonds>
4

>  <XLogP>
1.57500004768372

>  <sLogP>
2.083

>  <TPSA>
89.9399948120117

>  <FSP3>
0.35

>  <QED>
0.787

$$$$
s_2230____16977514____666434
  -OEChem-04242015583D

 52 54  0     1  0  0  0  0  0999 V2000
  -11.6114   12.8245   64.5303 C   0  0  0  0  0  0  0  0  0  0  0  0
  -13.1319   15.5127   73.2267 C   0  0  0  0  0  0  0  0  0  0  0  0
  -10.6088   12.3639   65.3836 C   0  0  0  0  0  0  0  0  0  0  0  0
  -12.5429   13.7567   64.9877 C   0  0  0  0  0  0  0  0  0  0  0  0
  -14.0015   14.5350   72.7434 C   0  0  0  0  0  0  0  0  0  0  0  0
  -11.9642   15.8154   72.5262 C   0  0  0  0  0  0  0  0  0  0  0  0
  -10.5377   12.8353   66.6945 C   0  0  0  0  0  0  0  0  0  0  0  0
  -12.4718   14.2280   66.2986 C   0  0  0  0  0  0  0  0  0  0  0  0
  -13.7033   13.8599   71.5598 C   0  0  0  0  0  0  0  0  0  0  0  0
  -11.6661   15.1403   71.3426 C   0  0  0  0  0  0  0  0  0  0  0  0
  -11.4692   13.7673   67.1520 C   0  0  0  0  0  0  0  0  0  0  0  0
  -12.5356   14.1625   70.8593 C   0  0  0  0  0  0  0  0  0  0  0  0
  -11.6245   11.0831   69.0240 C   0  0  0  0  0  0  0  0  0  0  0  0
  -13.5550    9.7856   71.1250 C   0  0  0  0  0  0  0  0  0  0  0  0
  -13.2850    7.6899   71.4669 C   0  0  0  0  0  0  0  0  0  0  0  0
  -12.3245    8.8572   71.1627 C   0  0  1  0  0  0  0  0  0  0  0  0
  -14.3003    8.7358   71.9814 C   0  0  1  0  0  0  0  0  0  0  0  0
  -10.8277    7.4670   69.7437 C   0  0  0  0  0  0  0  0  0  0  0  0
  -11.3929   14.2784   68.5727 C   0  0  0  0  0  0  0  0  0  0  0  0
  -10.7888    9.9335   69.5283 C   0  0  0  0  0  0  0  0  0  0  0  0
  -12.2101   13.4275   69.5703 C   0  0  1  0  0  0  0  0  0  0  0  0
  -11.5070   12.1965   69.8424 N   0  0  0  0  0  0  0  0  0  0  0  0
  -11.6452    8.7338   69.8691 N   0  3  2  0  0  0  0  0  0  0  0  0
  -12.3157   11.0205   68.0108 O   0  0  0  0  0  0  0  0  0  0  0  0
  -14.2953    8.9635   73.4040 O   0  0  0  0  0  0  0  0  0  0  0  0
  -11.6658   12.4584   63.5092 H   0  0  0  0  0  0  0  0  0  0  0  0
  -13.3649   16.0392   74.1476 H   0  0  0  0  0  0  0  0  0  0  0  0
   -9.8828   11.6389   65.0273 H   0  0  0  0  0  0  0  0  0  0  0  0
  -13.3229   14.1163   64.3233 H   0  0  0  0  0  0  0  0  0  0  0  0
  -14.9112   14.2999   73.2881 H   0  0  0  0  0  0  0  0  0  0  0  0
  -11.2876   16.5774   72.9016 H   0  0  0  0  0  0  0  0  0  0  0  0
   -9.7533   12.4706   67.3524 H   0  0  0  0  0  0  0  0  0  0  0  0
  -13.2019   14.9541   66.6464 H   0  0  0  0  0  0  0  0  0  0  0  0
  -14.3866   13.0994   71.1909 H   0  0  0  0  0  0  0  0  0  0  0  0
  -10.7540   15.3827   70.8036 H   0  0  0  0  0  0  0  0  0  0  0  0
  -13.3970   10.7405   71.6332 H   0  0  0  0  0  0  0  0  0  0  0  0
  -13.9864    9.9765   70.1416 H   0  0  0  0  0  0  0  0  0  0  0  0
  -13.6157    7.1002   70.6108 H   0  0  0  0  0  0  0  0  0  0  0  0
  -12.9162    7.0120   72.2416 H   0  0  0  0  0  0  0  0  0  0  0  0
  -11.6103    9.0802   71.9661 H   0  0  0  0  0  0  0  0  0  0  0  0
  -15.3187    8.5478   71.6272 H   0  0  0  0  0  0  0  0  0  0  0  0
  -10.0554    7.4903   70.5147 H   0  0  0  0  0  0  0  0  0  0  0  0
  -11.5006    6.6195   69.8874 H   0  0  0  0  0  0  0  0  0  0  0  0
  -10.3854    7.4522   68.7457 H   0  0  0  0  0  0  0  0  0  0  0  0
  -11.7647   15.3127   68.5736 H   0  0  0  0  0  0  0  0  0  0  0  0
  -10.3421   14.3476   68.8836 H   0  0  0  0  0  0  0  0  0  0  0  0
  -10.2590   10.2174   70.4418 H   0  0  0  0  0  0  0  0  0  0  0  0
  -10.0794    9.6131   68.7603 H   0  0  0  0  0  0  0  0  0  0  0  0
  -13.1540   13.1405   69.0893 H   0  0  0  0  0  0  0  0  0  0  0  0
  -10.9280   12.1479   70.6759 H   0  0  0  0  0  0  0  0  0  0  0  0
  -12.3667    8.6803   69.1255 H   0  0  0  0  0  0  0  0  0  0  0  0
  -14.7943    8.2316   73.7900 H   0  0  0  0  0  0  0  0  0  0  0  0
  1  3  2  0  0  0  0
  1  4  1  0  0  0  0
  2  5  2  0  0  0  0
  2  6  1  0  0  0  0
  3  7  1  0  0  0  0
  4  8  2  0  0  0  0
  5  9  1  0  0  0  0
  6 10  2  0  0  0  0
  7 11  2  0  0  0  0
  8 11  1  0  0  0  0
  9 12  2  0  0  0  0
 10 12  1  0  0  0  0
 11 19  1  0  0  0  0
 12 21  1  0  0  0  0
 13 20  1  0  0  0  0
 13 22  1  0  0  0  0
 13 24  2  0  0  0  0
 14 16  1  0  0  0  0
 14 17  1  0  0  0  0
 15 16  1  0  0  0  0
 15 17  1  0  0  0  0
 16 23  1  0  0  0  0
 17 25  1  0  0  0  0
 18 23  1  6  0  0  0
 19 21  1  6  0  0  0
 20 23  1  0  0  0  0
 21 22  1  0  0  0  0
  1 26  1  0  0  0  0
  2 27  1  0  0  0  0
  3 28  1  0  0  0  0
  4 29  1  0  0  0  0
  5 30  1  0  0  0  0
  6 31  1  0  0  0  0
  7 32  1  0  0  0  0
  8 33  1  0  0  0  0
  9 34  1  0  0  0  0
 10 35  1  0  0  0  0
 14 36  1  0  0  0  0
 14 37  1  0  0  0  0
 15 38  1  0  0  0  0
 15 39  1  0  0  0  0
 16 40  1  1  0  0  0
 17 41  1  1  0  0  0
 18 42  1  0  0  0  0
 18 43  1  0  0  0  0
 18 44  1  0  0  0  0
 19 45  1  0  0  0  0
 19 46  1  0  0  0  0
 20 47  1  0  0  0  0
 20 48  1  0  0  0  0
 21 49  1  0  0  0  0
 22 50  1  0  0  0  0
 23 51  1  0  0  0  0
 25 52  1  0  0  0  0
M  CHG  1  23   1
M  END
>  <idnumber>
s_2230____16977514____666434

>  <Chemgauss4>
-14.1532487869263

>  <Hetero-Bemis-Murcko>
c1ccc(cc1)CC(c2ccccc2)NCC[NH2+]C3CCC3

>  <Hetero-Bemis-Murcko>
c1ccc(cc1)CC(c2ccccc2)NCC[NH2+]C3CCC3

>  <MW>
338.451

>  <HBD>
2

>  <HBA>
3

>  <RotBonds>
7

>  <XLogP>
2.85400009155273

>  <sLogP>
2.542

>  <TPSA>
53.7700004577637

>  <FSP3>
0.381

>  <QED>
0.816

$$$$
Z3013402459
  -OEChem-04242015583D

 54 56  0     1  0  0  0  0  0999 V2000
  -12.9882   16.0634   73.3299 C   0  0  0  0  0  0  0  0  0  0  0  0
  -13.7956   14.9791   72.9865 C   0  0  0  0  0  0  0  0  0  0  0  0
  -11.9147   16.4198   72.5136 C   0  0  0  0  0  0  0  0  0  0  0  0
  -12.8596   13.7765   65.2244 C   0  0  0  0  0  0  0  0  0  0  0  0
  -11.8645   12.9100   64.7861 C   0  0  0  0  0  0  0  0  0  0  0  0
  -13.5295   14.2511   71.8269 C   0  0  0  0  0  0  0  0  0  0  0  0
  -11.6485   15.6917   71.3540 C   0  0  0  0  0  0  0  0  0  0  0  0
  -12.7610   14.3600   66.4826 C   0  0  0  0  0  0  0  0  0  0  0  0
  -10.7996   12.6618   65.6371 C   0  0  0  0  0  0  0  0  0  0  0  0
  -12.4560   14.6073   71.0106 C   0  0  0  0  0  0  0  0  0  0  0  0
  -11.6560   14.0468   67.2578 C   0  0  0  0  0  0  0  0  0  0  0  0
  -10.4351   10.4837   69.7980 C   0  0  0  0  0  0  0  0  0  0  0  0
  -11.3965   11.5040   69.3123 C   0  0  0  0  0  0  0  0  0  0  0  0
  -12.2715    9.7442   71.2896 C   0  0  0  0  0  0  0  0  0  0  0  0
  -10.1805    8.5419   71.4091 C   0  0  0  0  0  0  0  0  0  0  0  0
  -12.2590    8.8473   72.5171 C   0  0  2  0  0  0  0  0  0  0  0  0
  -11.2526    7.7306   72.1647 C   0  0  0  0  0  0  0  0  0  0  0  0
  -10.6737    7.0705   73.4190 C   0  0  0  0  0  0  0  0  0  0  0  0
  -11.8271    6.6395   71.2418 C   0  0  0  0  0  0  0  0  0  0  0  0
  -11.5160   14.6627   68.6312 C   0  0  0  0  0  0  0  0  0  0  0  0
  -12.1654   13.8147   69.7476 C   0  0  1  0  0  0  0  0  0  0  0  0
  -10.6692   13.2099   66.8660 N   0  0  0  0  0  0  0  0  0  0  0  0
  -10.9149    9.6362   70.7709 N   0  0  0  0  0  0  0  0  0  0  0  0
  -11.3268   12.6734   70.0362 N   0  0  0  0  0  0  0  0  0  0  0  0
  -13.6119    8.3530   72.8275 N   0  3  0  0  0  0  0  0  0  0  0  0
   -9.3240   10.4915   69.2874 O   0  0  0  0  0  0  0  0  0  0  0  0
  -12.1317   11.2570   68.3687 O   0  0  0  0  0  0  0  0  0  0  0  0
  -13.1964   16.6311   74.2322 H   0  0  0  0  0  0  0  0  0  0  0  0
  -14.6322   14.7022   73.6214 H   0  0  0  0  0  0  0  0  0  0  0  0
  -11.2865   17.2646   72.7801 H   0  0  0  0  0  0  0  0  0  0  0  0
  -13.7105   13.9965   64.5866 H   0  0  0  0  0  0  0  0  0  0  0  0
  -11.9206   12.4438   63.8092 H   0  0  0  0  0  0  0  0  0  0  0  0
  -14.1638   13.4076   71.5673 H   0  0  0  0  0  0  0  0  0  0  0  0
  -10.8099   15.9765   70.7241 H   0  0  0  0  0  0  0  0  0  0  0  0
  -13.5306   15.0376   66.8364 H   0  0  0  0  0  0  0  0  0  0  0  0
   -9.9972   11.9936   65.3423 H   0  0  0  0  0  0  0  0  0  0  0  0
  -12.9530    9.3953   70.5054 H   0  0  0  0  0  0  0  0  0  0  0  0
  -12.5095   10.7874   71.5208 H   0  0  0  0  0  0  0  0  0  0  0  0
   -9.4538    8.9989   72.0910 H   0  0  0  0  0  0  0  0  0  0  0  0
   -9.6347    7.9584   70.6607 H   0  0  0  0  0  0  0  0  0  0  0  0
  -11.9248    9.4155   73.3944 H   0  0  0  0  0  0  0  0  0  0  0  0
  -11.4525    6.5075   73.9281 H   0  0  0  0  0  0  0  0  0  0  0  0
  -10.2866    7.8350   74.0885 H   0  0  0  0  0  0  0  0  0  0  0  0
   -9.8678    6.3965   73.1382 H   0  0  0  0  0  0  0  0  0  0  0  0
  -12.5793    6.0755   71.7824 H   0  0  0  0  0  0  0  0  0  0  0  0
  -11.0260    5.9780   70.9309 H   0  0  0  0  0  0  0  0  0  0  0  0
  -12.2746    7.1080   70.3721 H   0  0  0  0  0  0  0  0  0  0  0  0
  -11.9841   15.6565   68.5985 H   0  0  0  0  0  0  0  0  0  0  0  0
  -10.4552   14.8485   68.8454 H   0  0  0  0  0  0  0  0  0  0  0  0
  -13.1128   13.4100   69.3690 H   0  0  0  0  0  0  0  0  0  0  0  0
  -10.6614   12.7363   70.8013 H   0  0  0  0  0  0  0  0  0  0  0  0
  -13.8439    7.5166   72.2744 H   0  0  0  0  0  0  0  0  0  0  0  0
  -14.3282    9.0641   72.6250 H   0  0  0  0  0  0  0  0  0  0  0  0
  -13.7020    8.0996   73.8211 H   0  0  0  0  0  0  0  0  0  0  0  0
  1  2  2  0  0  0  0
  1  3  1  0  0  0  0
  2  6  1  0  0  0  0
  3  7  2  0  0  0  0
  4  5  2  0  0  0  0
  4  8  1  0  0  0  0
  5  9  1  0  0  0  0
  6 10  2  0  0  0  0
  7 10  1  0  0  0  0
  8 11  2  0  0  0  0
  9 22  2  0  0  0  0
 10 21  1  0  0  0  0
 11 20  1  0  0  0  0
 11 22  1  0  0  0  0
 12 13  1  0  0  0  0
 12 23  1  0  0  0  0
 12 26  2  0  0  0  0
 13 24  1  0  0  0  0
 13 27  2  0  0  0  0
 14 16  1  0  0  0  0
 14 23  1  0  0  0  0
 15 17  1  0  0  0  0
 15 23  1  0  0  0  0
 16 17  1  0  0  0  0
 16 25  1  1  0  0  0
 17 18  1  0  0  0  0
 17 19  1  0  0  0  0
 20 21  1  6  0  0  0
 21 24  1  0  0  0  0
  1 28  1  0  0  0  0
  2 29  1  0  0  0  0
  3 30  1  0  0  0  0
  4 31  1  0  0  0  0
  5 32  1  0  0  0  0
  6 33  1  0  0  0  0
  7 34  1  0  0  0  0
  8 35  1  0  0  0  0
  9 36  1  0  0  0  0
 14 37  1  0  0  0  0
 14 38  1  0  0  0  0
 15 39  1  0  0  0  0
 15 40  1  0  0  0  0
 16 41  1  0  0  0  0
 18 42  1  0  0  0  0
 18 43  1  0  0  0  0
 18 44  1  0  0  0  0
 19 45  1  0  0  0  0
 19 46  1  0  0  0  0
 19 47  1  0  0  0  0
 20 48  1  0  0  0  0
 20 49  1  0  0  0  0
 21 50  1  0  0  0  0
 24 51  1  0  0  0  0
 25 52  1  0  0  0  0
 25 53  1  0  0  0  0
 25 54  1  0  0  0  0
M  CHG  1  25   1
M  END
>  <idnumber>
Z3013402459

>  <Chemgauss4>
-14.1365823745728

>  <Hetero-Bemis-Murcko>
c1ccc(cc1)C(Cc2ccccn2)NCCN3CCCC3

>  <Hetero-Bemis-Murcko>
c1ccc(cc1)C(Cc2ccccn2)NCCN3CCCC3

>  <MW>
366.465

>  <HBD>
2

>  <HBA>
4

>  <RotBonds>
4

>  <XLogP>
1.58200001716614

>  <sLogP>
1.677

>  <TPSA>
89.9399948120117

>  <FSP3>
0.381

>  <QED>
0.806

$$$$
Z3840338358
  -OEChem-04242015583D

 49 51  0     1  0  0  0  0  0999 V2000
  -10.6107   13.1735   66.8286 C   0  0  0  0  0  0  0  0  0  0  0  0
  -12.5406   14.5901   66.5033 C   0  0  0  0  0  0  0  0  0  0  0  0
  -13.5055   14.3504   71.8268 C   0  0  0  0  0  0  0  0  0  0  0  0
  -11.4613   15.5904   71.4790 C   0  0  0  0  0  0  0  0  0  0  0  0
  -10.7563   12.6777   65.5330 C   0  0  0  0  0  0  0  0  0  0  0  0
  -12.6862   14.0943   65.2077 C   0  0  0  0  0  0  0  0  0  0  0  0
  -13.7318   15.0550   73.0091 C   0  0  0  0  0  0  0  0  0  0  0  0
  -11.6876   16.2950   72.6614 C   0  0  0  0  0  0  0  0  0  0  0  0
  -11.5029   14.1297   67.3138 C   0  0  0  0  0  0  0  0  0  0  0  0
  -12.3702   14.6181   71.0617 C   0  0  0  0  0  0  0  0  0  0  0  0
  -11.7941   13.1381   64.7225 C   0  0  0  0  0  0  0  0  0  0  0  0
  -12.8229   16.0273   73.4264 C   0  0  0  0  0  0  0  0  0  0  0  0
  -10.7727   10.3495   69.7254 C   0  0  0  0  0  0  0  0  0  0  0  0
  -11.5982   11.4900   69.2572 C   0  0  0  0  0  0  0  0  0  0  0  0
  -11.7474    7.9831   72.3997 C   0  0  0  0  0  0  0  0  0  0  0  0
  -10.7824    8.3478   71.2774 C   0  0  0  0  0  0  0  0  0  0  0  0
  -12.7219    9.7718   71.1474 C   0  0  0  0  0  0  0  0  0  0  0  0
  -13.0811    8.4768   71.8539 C   0  0  2  0  0  0  0  0  0  0  0  0
  -11.3452   14.6681   68.7176 C   0  0  0  0  0  0  0  0  0  0  0  0
  -12.1235   13.8516   69.7735 C   0  0  1  0  0  0  0  0  0  0  0  0
  -11.3735    9.5292   70.6528 N   0  0  0  0  0  0  0  0  0  0  0  0
  -11.4263   12.6129   70.0355 N   0  0  0  0  0  0  0  0  0  0  0  0
  -14.0527    8.7044   72.9361 N   0  3  0  0  0  0  0  0  0  0  0  0
   -9.6498   10.2543   69.2507 O   0  0  0  0  0  0  0  0  0  0  0  0
  -12.3218   11.3662   68.2810 O   0  0  0  0  0  0  0  0  0  0  0  0
  -11.9324   12.6640   63.4774 F   0  0  0  0  0  0  0  0  0  0  0  0
  -13.0415   16.7059   74.5604 F   0  0  0  0  0  0  0  0  0  0  0  0
   -9.7996   12.8081   67.4528 H   0  0  0  0  0  0  0  0  0  0  0  0
  -13.2404   15.3352   66.8728 H   0  0  0  0  0  0  0  0  0  0  0  0
  -14.2189   13.5941   71.5101 H   0  0  0  0  0  0  0  0  0  0  0  0
  -10.5741   15.8059   70.8893 H   0  0  0  0  0  0  0  0  0  0  0  0
  -10.0615   11.9338   65.1549 H   0  0  0  0  0  0  0  0  0  0  0  0
  -13.4942   14.4522   64.5766 H   0  0  0  0  0  0  0  0  0  0  0  0
  -14.6158   14.8472   73.6044 H   0  0  0  0  0  0  0  0  0  0  0  0
  -10.9800   17.0517   72.9868 H   0  0  0  0  0  0  0  0  0  0  0  0
  -11.7517    6.9101   72.6120 H   0  0  0  0  0  0  0  0  0  0  0  0
  -11.4674    8.5195   73.3148 H   0  0  0  0  0  0  0  0  0  0  0  0
   -9.7721    8.5604   71.6386 H   0  0  0  0  0  0  0  0  0  0  0  0
  -10.7332    7.5581   70.5197 H   0  0  0  0  0  0  0  0  0  0  0  0
  -13.3974   10.0190   70.3228 H   0  0  0  0  0  0  0  0  0  0  0  0
  -12.6676   10.6287   71.8290 H   0  0  0  0  0  0  0  0  0  0  0  0
  -13.5211    7.7506   71.1608 H   0  0  0  0  0  0  0  0  0  0  0  0
  -11.6998   15.7084   68.7158 H   0  0  0  0  0  0  0  0  0  0  0  0
  -10.2788   14.7254   68.9727 H   0  0  0  0  0  0  0  0  0  0  0  0
  -13.0954   13.5712   69.3476 H   0  0  0  0  0  0  0  0  0  0  0  0
  -10.7858   12.5691   70.8229 H   0  0  0  0  0  0  0  0  0  0  0  0
  -14.9066    8.1448   72.8018 H   0  0  0  0  0  0  0  0  0  0  0  0
  -14.3385    9.6927   72.9855 H   0  0  0  0  0  0  0  0  0  0  0  0
  -13.6619    8.4519   73.8548 H   0  0  0  0  0  0  0  0  0  0  0  0
  1  5  1  0  0  0  0
  1  9  2  0  0  0  0
  2  6  2  0  0  0  0
  2  9  1  0  0  0  0
  3  7  1  0  0  0  0
  3 10  2  0  0  0  0
  4  8  2  0  0  0  0
  4 10  1  0  0  0  0
  5 11  2  0  0  0  0
  6 11  1  0  0  0  0
  7 12  2  0  0  0  0
  8 12  1  0  0  0  0
  9 19  1  0  0  0  0
 10 20  1  0  0  0  0
 11 26  1  0  0  0  0
 12 27  1  0  0  0  0
 13 14  1  0  0  0  0
 13 21  1  0  0  0  0
 13 24  2  0  0  0  0
 14 22  1  0  0  0  0
 14 25  2  0  0  0  0
 15 16  1  0  0  0  0
 15 18  1  0  0  0  0
 16 21  1  0  0  0  0
 17 18  1  0  0  0  0
 17 21  1  0  0  0  0
 18 23  1  0  0  0  0
 19 20  1  6  0  0  0
 20 22  1  0  0  0  0
  1 28  1  0  0  0  0
  2 29  1  0  0  0  0
  3 30  1  0  0  0  0
  4 31  1  0  0  0  0
  5 32  1  0  0  0  0
  6 33  1  0  0  0  0
  7 34  1  0  0  0  0
  8 35  1  0  0  0  0
 15 36  1  0  0  0  0
 15 37  1  0  0  0  0
 16 38  1  0  0  0  0
 16 39  1  0  0  0  0
 17 40  1  0  0  0  0
 17 41  1  0  0  0  0
 18 42  1  6  0  0  0
 19 43  1  0  0  0  0
 19 44  1  0  0  0  0
 20 45  1  0  0  0  0
 22 46  1  0  0  0  0
 23 47  1  0  0  0  0
 23 48  1  0  0  0  0
 23 49  1  0  0  0  0
M  CHG  1  23   1
M  END
>  <idnumber>
Z3840338358

>  <Chemgauss4>
-14.1251878738403

>  <Hetero-Bemis-Murcko>
c1ccc(cc1)CC(c2ccccc2)NCCN3CCCC3

>  <Hetero-Bemis-Murcko>
c1ccc(cc1)CC(c2ccccc2)NCCN3CCCC3

>  <MW>
373.403

>  <HBD>
2

>  <HBA>
3

>  <RotBonds>
4

>  <XLogP>
1.94199967384338

>  <sLogP>
1.924

>  <TPSA>
77.0499954223633

>  <FSP3>
0.3

>  <QED>
0.804

$$$$
Z3840338390
  -OEChem-04242015583D

 49 51  0     1  0  0  0  0  0999 V2000
  -10.6107   13.1735   66.8286 C   0  0  0  0  0  0  0  0  0  0  0  0
  -12.5406   14.5901   66.5033 C   0  0  0  0  0  0  0  0  0  0  0  0
  -13.5055   14.3504   71.8268 C   0  0  0  0  0  0  0  0  0  0  0  0
  -11.4613   15.5904   71.4790 C   0  0  0  0  0  0  0  0  0  0  0  0
  -10.7563   12.6777   65.5330 C   0  0  0  0  0  0  0  0  0  0  0  0
  -12.6862   14.0943   65.2077 C   0  0  0  0  0  0  0  0  0  0  0  0
  -13.7318   15.0550   73.0091 C   0  0  0  0  0  0  0  0  0  0  0  0
  -11.6876   16.2950   72.6614 C   0  0  0  0  0  0  0  0  0  0  0  0
  -11.5029   14.1297   67.3138 C   0  0  0  0  0  0  0  0  0  0  0  0
  -12.3702   14.6181   71.0617 C   0  0  0  0  0  0  0  0  0  0  0  0
  -11.7941   13.1381   64.7225 C   0  0  0  0  0  0  0  0  0  0  0  0
  -12.8229   16.0273   73.4264 C   0  0  0  0  0  0  0  0  0  0  0  0
  -10.7727   10.3495   69.7254 C   0  0  0  0  0  0  0  0  0  0  0  0
  -11.5982   11.4900   69.2572 C   0  0  0  0  0  0  0  0  0  0  0  0
  -11.7474    7.9831   72.3997 C   0  0  0  0  0  0  0  0  0  0  0  0
  -10.7824    8.3478   71.2774 C   0  0  0  0  0  0  0  0  0  0  0  0
  -12.7219    9.7718   71.1474 C   0  0  0  0  0  0  0  0  0  0  0  0
  -13.0811    8.4768   71.8539 C   0  0  2  0  0  0  0  0  0  0  0  0
  -11.3452   14.6681   68.7176 C   0  0  0  0  0  0  0  0  0  0  0  0
  -12.1235   13.8516   69.7735 C   0  0  1  0  0  0  0  0  0  0  0  0
  -11.3735    9.5292   70.6528 N   0  0  0  0  0  0  0  0  0  0  0  0
  -11.4263   12.6129   70.0355 N   0  0  0  0  0  0  0  0  0  0  0  0
  -14.0527    8.7044   72.9361 N   0  3  0  0  0  0  0  0  0  0  0  0
   -9.6498   10.2543   69.2507 O   0  0  0  0  0  0  0  0  0  0  0  0
  -12.3218   11.3662   68.2810 O   0  0  0  0  0  0  0  0  0  0  0  0
  -11.9324   12.6640   63.4774 F   0  0  0  0  0  0  0  0  0  0  0  0
  -13.0415   16.7059   74.5604 F   0  0  0  0  0  0  0  0  0  0  0  0
   -9.7996   12.8081   67.4528 H   0  0  0  0  0  0  0  0  0  0  0  0
  -13.2404   15.3352   66.8728 H   0  0  0  0  0  0  0  0  0  0  0  0
  -14.2189   13.5941   71.5101 H   0  0  0  0  0  0  0  0  0  0  0  0
  -10.5741   15.8059   70.8893 H   0  0  0  0  0  0  0  0  0  0  0  0
  -10.0615   11.9338   65.1549 H   0  0  0  0  0  0  0  0  0  0  0  0
  -13.4942   14.4522   64.5766 H   0  0  0  0  0  0  0  0  0  0  0  0
  -14.6158   14.8472   73.6044 H   0  0  0  0  0  0  0  0  0  0  0  0
  -10.9800   17.0517   72.9868 H   0  0  0  0  0  0  0  0  0  0  0  0
  -11.7517    6.9101   72.6120 H   0  0  0  0  0  0  0  0  0  0  0  0
  -11.4674    8.5195   73.3148 H   0  0  0  0  0  0  0  0  0  0  0  0
   -9.7721    8.5604   71.6386 H   0  0  0  0  0  0  0  0  0  0  0  0
  -10.7332    7.5581   70.5197 H   0  0  0  0  0  0  0  0  0  0  0  0
  -13.3974   10.0190   70.3228 H   0  0  0  0  0  0  0  0  0  0  0  0
  -12.6676   10.6287   71.8290 H   0  0  0  0  0  0  0  0  0  0  0  0
  -13.5211    7.7506   71.1608 H   0  0  0  0  0  0  0  0  0  0  0  0
  -11.6998   15.7084   68.7158 H   0  0  0  0  0  0  0  0  0  0  0  0
  -10.2788   14.7254   68.9727 H   0  0  0  0  0  0  0  0  0  0  0  0
  -13.0954   13.5712   69.3476 H   0  0  0  0  0  0  0  0  0  0  0  0
  -10.7858   12.5691   70.8229 H   0  0  0  0  0  0  0  0  0  0  0  0
  -14.9066    8.1448   72.8018 H   0  0  0  0  0  0  0  0  0  0  0  0
  -14.3385    9.6927   72.9855 H   0  0  0  0  0  0  0  0  0  0  0  0
  -13.6619    8.4519   73.8548 H   0  0  0  0  0  0  0  0  0  0  0  0
  1  5  1  0  0  0  0
  1  9  2  0  0  0  0
  2  6  2  0  0  0  0
  2  9  1  0  0  0  0
  3  7  1  0  0  0  0
  3 10  2  0  0  0  0
  4  8  2  0  0  0  0
  4 10  1  0  0  0  0
  5 11  2  0  0  0  0
  6 11  1  0  0  0  0
  7 12  2  0  0  0  0
  8 12  1  0  0  0  0
  9 19  1  0  0  0  0
 10 20  1  0  0  0  0
 11 26  1  0  0  0  0
 12 27  1  0  0  0  0
 13 14  1  0  0  0  0
 13 21  1  0  0  0  0
 13 24  2  0  0  0  0
 14 22  1  0  0  0  0
 14 25  2  0  0  0  0
 15 16  1  0  0  0  0
 15 18  1  0  0  0  0
 16 21  1  0  0  0  0
 17 18  1  0  0  0  0
 17 21  1  0  0  0  0
 18 23  1  1  0  0  0
 19 20  1  6  0  0  0
 20 22  1  0  0  0  0
  1 28  1  0  0  0  0
  2 29  1  0  0  0  0
  3 30  1  0  0  0  0
  4 31  1  0  0  0  0
  5 32  1  0  0  0  0
  6 33  1  0  0  0  0
  7 34  1  0  0  0  0
  8 35  1  0  0  0  0
 15 36  1  0  0  0  0
 15 37  1  0  0  0  0
 16 38  1  0  0  0  0
 16 39  1  0  0  0  0
 17 40  1  0  0  0  0
 17 41  1  0  0  0  0
 18 42  1  0  0  0  0
 19 43  1  0  0  0  0
 19 44  1  0  0  0  0
 20 45  1  0  0  0  0
 22 46  1  0  0  0  0
 23 47  1  0  0  0  0
 23 48  1  0  0  0  0
 23 49  1  0  0  0  0
M  CHG  1  23   1
M  END
>  <idnumber>
Z3840338390

>  <Chemgauss4>
-14.1251878738403

>  <Hetero-Bemis-Murcko>
c1ccc(cc1)CC(c2ccccc2)NCCN3CCCC3

>  <Hetero-Bemis-Murcko>
c1ccc(cc1)CC(c2ccccc2)NCCN3CCCC3

>  <MW>
373.403

>  <HBD>
2

>  <HBA>
3

>  <RotBonds>
4

>  <XLogP>
1.94199967384338

>  <sLogP>
1.924

>  <TPSA>
77.0499954223633

>  <FSP3>
0.3

>  <QED>
0.804

$$$$
Z769663076
  -OEChem-04242015583D

 58 60  0     1  0  0  0  0  0999 V2000
   -9.0498    9.0939   71.3994 C   0  0  0  0  0  0  0  0  0  0  0  0
   -9.7441    8.1136   72.1083 C   0  0  0  0  0  0  0  0  0  0  0  0
   -9.7464   10.1310   70.7789 C   0  0  0  0  0  0  0  0  0  0  0  0
  -11.1350    8.1703   72.1967 C   0  0  0  0  0  0  0  0  0  0  0  0
  -12.8488   13.2036   65.2197 C   0  0  0  0  0  0  0  0  0  0  0  0
  -12.8335   12.1114   64.3466 C   0  0  0  0  0  0  0  0  0  0  0  0
  -10.4178   13.4497   65.0779 C   0  0  0  0  0  0  0  0  0  0  0  0
  -11.1373   10.1877   70.8674 C   0  0  0  0  0  0  0  0  0  0  0  0
  -11.6545   13.8653   65.5811 C   0  0  0  0  0  0  0  0  0  0  0  0
  -11.8316    9.2073   71.5763 C   0  0  0  0  0  0  0  0  0  0  0  0
  -11.6048   11.7209   63.8644 C   0  0  0  0  0  0  0  0  0  0  0  0
  -10.4280   12.3728   64.2207 C   0  0  0  0  0  0  0  0  0  0  0  0
   -9.8761   10.6733   62.7890 C   0  0  0  0  0  0  0  0  0  0  0  0
  -11.8538   11.3028   70.1964 C   0  0  0  0  0  0  0  0  0  0  0  0
  -11.3663   14.1558   68.8324 C   0  0  0  0  0  0  0  0  0  0  0  0
  -13.3208    9.2434   71.6865 C   0  0  0  0  0  0  0  0  0  0  0  0
  -12.5658   16.1903   65.9846 C   0  0  0  0  0  0  0  0  0  0  0  0
  -14.3433   14.2721   72.1391 C   0  0  0  0  0  0  0  0  0  0  0  0
  -12.8064   15.7939   73.3971 C   0  0  0  0  0  0  0  0  0  0  0  0
  -12.1558   14.9235   71.0876 C   0  0  0  0  0  0  0  0  0  0  0  0
  -11.7169   15.0434   66.5292 C   0  0  1  0  0  0  0  0  0  0  0  0
  -12.1467   13.7640   70.0833 C   0  0  2  0  0  0  0  0  0  0  0  0
  -12.8788   14.6228   72.4163 C   0  0  0  0  0  0  0  0  0  0  0  0
  -11.2853   10.6811   62.9910 N   0  0  0  0  0  0  0  0  0  0  0  0
   -9.3637   11.7456   63.5729 N   0  0  0  0  0  0  0  0  0  0  0  0
  -11.5219   12.5829   70.6200 N   0  0  0  0  0  0  0  0  0  0  0  0
  -12.1959   14.6471   67.8339 N   0  0  0  0  0  0  0  0  0  0  0  0
   -9.2370    9.9036   62.0864 O   0  0  0  0  0  0  0  0  0  0  0  0
  -12.6953   11.0458   69.3394 O   0  0  0  0  0  0  0  0  0  0  0  0
  -10.1511   14.0031   68.7265 O   0  0  0  0  0  0  0  0  0  0  0  0
   -7.9665    9.0503   71.3304 H   0  0  0  0  0  0  0  0  0  0  0  0
   -9.2011    7.3062   72.5910 H   0  0  0  0  0  0  0  0  0  0  0  0
   -9.1938   10.8882   70.2286 H   0  0  0  0  0  0  0  0  0  0  0  0
  -11.6662    7.4017   72.7519 H   0  0  0  0  0  0  0  0  0  0  0  0
  -13.7996   13.5447   65.6235 H   0  0  0  0  0  0  0  0  0  0  0  0
  -13.7491   11.6031   64.0689 H   0  0  0  0  0  0  0  0  0  0  0  0
   -9.4958   13.9508   65.3499 H   0  0  0  0  0  0  0  0  0  0  0  0
  -13.6223    9.8165   72.5708 H   0  0  0  0  0  0  0  0  0  0  0  0
  -13.7726    9.7047   70.7998 H   0  0  0  0  0  0  0  0  0  0  0  0
  -13.7366    8.2314   71.7670 H   0  0  0  0  0  0  0  0  0  0  0  0
  -13.5957   15.8658   65.7999 H   0  0  0  0  0  0  0  0  0  0  0  0
  -12.5947   17.0200   66.7000 H   0  0  0  0  0  0  0  0  0  0  0  0
  -12.1635   16.5885   65.0463 H   0  0  0  0  0  0  0  0  0  0  0  0
  -14.8616   15.1121   71.6643 H   0  0  0  0  0  0  0  0  0  0  0  0
  -14.8708   14.0399   73.0704 H   0  0  0  0  0  0  0  0  0  0  0  0
  -14.4264   13.4041   71.4763 H   0  0  0  0  0  0  0  0  0  0  0  0
  -13.2591   16.6962   72.9722 H   0  0  0  0  0  0  0  0  0  0  0  0
  -13.3364   15.5557   74.3257 H   0  0  0  0  0  0  0  0  0  0  0  0
  -11.7717   16.0249   73.6670 H   0  0  0  0  0  0  0  0  0  0  0  0
  -12.6320   15.7956   70.6178 H   0  0  0  0  0  0  0  0  0  0  0  0
  -11.1225   15.2272   71.3021 H   0  0  0  0  0  0  0  0  0  0  0  0
  -10.7023   15.4267   66.6936 H   0  0  0  0  0  0  0  0  0  0  0  0
  -13.1631   13.4826   69.7901 H   0  0  0  0  0  0  0  0  0  0  0  0
  -12.4139   13.7491   72.8892 H   0  0  0  0  0  0  0  0  0  0  0  0
  -11.9552   10.0448   62.5769 H   0  0  0  0  0  0  0  0  0  0  0  0
   -8.3888   12.0091   63.6478 H   0  0  0  0  0  0  0  0  0  0  0  0
  -10.8587   12.7103   71.3807 H   0  0  0  0  0  0  0  0  0  0  0  0
  -13.1926   14.7284   68.0112 H   0  0  0  0  0  0  0  0  0  0  0  0
  1  2  2  0  0  0  0
  1  3  1  0  0  0  0
  2  4  1  0  0  0  0
  3  8  2  0  0  0  0
  4 10  2  0  0  0  0
  5  6  1  0  0  0  0
  5  9  2  0  0  0  0
  6 11  2  0  0  0  0
  7  9  1  0  0  0  0
  7 12  2  0  0  0  0
  8 10  1  0  0  0  0
  8 14  1  0  0  0  0
  9 21  1  0  0  0  0
 10 16  1  0  0  0  0
 11 12  1  0  0  0  0
 11 24  1  0  0  0  0
 12 25  1  0  0  0  0
 13 24  1  0  0  0  0
 13 25  1  0  0  0  0
 13 28  2  0  0  0  0
 14 26  1  0  0  0  0
 14 29  2  0  0  0  0
 15 22  1  0  0  0  0
 15 27  1  0  0  0  0
 15 30  2  0  0  0  0
 17 21  1  6  0  0  0
 18 23  1  0  0  0  0
 19 23  1  0  0  0  0
 20 22  1  1  0  0  0
 20 23  1  0  0  0  0
 21 27  1  0  0  0  0
 22 26  1  0  0  0  0
  1 31  1  0  0  0  0
  2 32  1  0  0  0  0
  3 33  1  0  0  0  0
  4 34  1  0  0  0  0
  5 35  1  0  0  0  0
  6 36  1  0  0  0  0
  7 37  1  0  0  0  0
 16 38  1  0  0  0  0
 16 39  1  0  0  0  0
 16 40  1  0  0  0  0
 17 41  1  0  0  0  0
 17 42  1  0  0  0  0
 17 43  1  0  0  0  0
 18 44  1  0  0  0  0
 18 45  1  0  0  0  0
 18 46  1  0  0  0  0
 19 47  1  0  0  0  0
 19 48  1  0  0  0  0
 19 49  1  0  0  0  0
 20 50  1  0  0  0  0
 20 51  1  0  0  0  0
 21 52  1  0  0  0  0
 22 53  1  0  0  0  0
 23 54  1  0  0  0  0
 24 55  1  0  0  0  0
 25 56  1  0  0  0  0
 26 57  1  0  0  0  0
 27 58  1  0  0  0  0
M  END
>  <idnumber>
Z769663076

>  <Chemgauss4>
-14.1219844818115

>  <Hetero-Bemis-Murcko>
c1[nH]c2ccc(cc2[nH]1)CNCCNCc3ccccc3

>  <Hetero-Bemis-Murcko>
c1[nH]c2ccc(cc2[nH]1)CNCCNCc3ccccc3

>  <MW>
408.502

>  <HBD>
4

>  <HBA>
3

>  <RotBonds>
7

>  <XLogP>
3.60099959373474

>  <sLogP>
3.187

>  <TPSA>
106.849998474121

>  <FSP3>
0.348

>  <QED>
0.482

$$$$
Z1738108262
  -OEChem-04242015583D

 58 60  0     1  0  0  0  0  0999 V2000
  -13.4075   16.0322   73.0755 C   0  0  0  0  0  0  0  0  0  0  0  0
  -10.3477   13.5556   64.7311 C   0  0  0  0  0  0  0  0  0  0  0  0
  -12.0304   16.2522   73.0502 C   0  0  0  0  0  0  0  0  0  0  0  0
  -14.0444   15.4695   71.9695 C   0  0  0  0  0  0  0  0  0  0  0  0
  -11.4986   14.2803   65.0409 C   0  0  0  0  0  0  0  0  0  0  0  0
   -9.6412   12.9033   65.7416 C   0  0  0  0  0  0  0  0  0  0  0  0
  -11.2901   15.9095   71.9187 C   0  0  0  0  0  0  0  0  0  0  0  0
  -13.3042   15.1269   70.8380 C   0  0  0  0  0  0  0  0  0  0  0  0
  -11.9430   14.3527   66.3611 C   0  0  0  0  0  0  0  0  0  0  0  0
  -10.0856   12.9757   67.0618 C   0  0  0  0  0  0  0  0  0  0  0  0
  -11.9270   15.3469   70.8126 C   0  0  0  0  0  0  0  0  0  0  0  0
  -11.2365   13.7004   67.3716 C   0  0  0  0  0  0  0  0  0  0  0  0
  -12.0678    7.5477   71.3384 C   0  0  0  0  0  0  0  0  0  0  0  0
  -12.2975   11.4612   69.4664 C   0  0  0  0  0  0  0  0  0  0  0  0
  -10.1081    6.9297   68.1092 C   0  0  0  0  0  0  0  0  0  0  0  0
  -10.5813    8.1624   67.3525 C   0  0  0  0  0  0  0  0  0  0  0  0
  -10.9935    6.6564   69.3176 C   0  0  0  0  0  0  0  0  0  0  0  0
  -10.6722    9.3754   68.2640 C   0  0  0  0  0  0  0  0  0  0  0  0
  -11.1072    7.8711   70.2388 C   0  0  1  0  0  0  0  0  0  0  0  0
  -11.1254   14.9755   69.5859 C   0  0  0  0  0  0  0  0  0  0  0  0
  -11.7731   10.3067   70.2827 C   0  0  0  0  0  0  0  0  0  0  0  0
  -11.7198   13.7790   68.8097 C   0  0  2  0  0  0  0  0  0  0  0  0
  -13.2976    7.2025   70.9819 N   0  0  0  0  0  0  0  0  0  0  0  0
  -11.4396   12.5498   69.5127 N   0  0  0  0  0  0  0  0  0  0  0  0
  -11.6699    7.6147   72.6014 N   0  3  0  0  0  0  0  0  0  0  0  0
  -11.5827    9.0720   69.4352 N   0  3  1  0  0  0  0  0  0  0  0  0
  -13.3555   11.4211   68.8440 O   0  0  0  0  0  0  0  0  0  0  0  0
  -10.3676    7.9848   72.8586 O   0  0  0  0  0  0  0  0  0  0  0  0
  -13.9836   16.2978   73.9572 H   0  0  0  0  0  0  0  0  0  0  0  0
  -10.0026   13.4982   63.7029 H   0  0  0  0  0  0  0  0  0  0  0  0
  -11.5341   16.6893   73.9118 H   0  0  0  0  0  0  0  0  0  0  0  0
  -15.1165   15.2971   71.9893 H   0  0  0  0  0  0  0  0  0  0  0  0
  -12.0495   14.7874   64.2541 H   0  0  0  0  0  0  0  0  0  0  0  0
   -8.7458   12.3381   65.5007 H   0  0  0  0  0  0  0  0  0  0  0  0
  -10.2175   16.0847   71.9078 H   0  0  0  0  0  0  0  0  0  0  0  0
  -13.8089   14.6891   69.9808 H   0  0  0  0  0  0  0  0  0  0  0  0
  -12.8407   14.9198   66.5931 H   0  0  0  0  0  0  0  0  0  0  0  0
   -9.5287   12.4644   67.8426 H   0  0  0  0  0  0  0  0  0  0  0  0
  -10.1113    6.0605   67.4421 H   0  0  0  0  0  0  0  0  0  0  0  0
   -9.0721    7.0764   68.4386 H   0  0  0  0  0  0  0  0  0  0  0  0
   -9.8897    8.3739   66.5293 H   0  0  0  0  0  0  0  0  0  0  0  0
  -11.5613    7.9660   66.9001 H   0  0  0  0  0  0  0  0  0  0  0  0
  -11.9915    6.3490   68.9779 H   0  0  0  0  0  0  0  0  0  0  0  0
  -10.5861    5.8050   69.8771 H   0  0  0  0  0  0  0  0  0  0  0  0
   -9.6933    9.6555   68.6690 H   0  0  0  0  0  0  0  0  0  0  0  0
  -11.1027   10.2267   67.7265 H   0  0  0  0  0  0  0  0  0  0  0  0
  -10.1513    8.1336   70.6653 H   0  0  0  0  0  0  0  0  0  0  0  0
  -10.1051   14.7351   69.9164 H   0  0  0  0  0  0  0  0  0  0  0  0
  -11.0201   15.8533   68.9347 H   0  0  0  0  0  0  0  0  0  0  0  0
  -12.4809   10.0448   71.0740 H   0  0  0  0  0  0  0  0  0  0  0  0
  -10.7979   10.5552   70.7106 H   0  0  0  0  0  0  0  0  0  0  0  0
  -12.8124   13.8818   68.8011 H   0  0  0  0  0  0  0  0  0  0  0  0
  -13.5561    7.1654   70.0021 H   0  0  0  0  0  0  0  0  0  0  0  0
  -14.0018    6.9701   71.6733 H   0  0  0  0  0  0  0  0  0  0  0  0
  -10.5950   12.4996   70.0752 H   0  0  0  0  0  0  0  0  0  0  0  0
  -12.2676    7.4091   73.3930 H   0  0  0  0  0  0  0  0  0  0  0  0
  -12.5066    8.8380   69.0478 H   0  0  0  0  0  0  0  0  0  0  0  0
  -10.3451    7.9536   73.8301 H   0  0  0  0  0  0  0  0  0  0  0  0
  1  3  2  0  0  0  0
  1  4  1  0  0  0  0
  2  5  2  0  0  0  0
  2  6  1  0  0  0  0
  3  7  1  0  0  0  0
  4  8  2  0  0  0  0
  5  9  1  0  0  0  0
  6 10  2  0  0  0  0
  7 11  2  0  0  0  0
  8 11  1  0  0  0  0
  9 12  2  0  0  0  0
 10 12  1  0  0  0  0
 11 20  1  0  0  0  0
 12 22  1  0  0  0  0
 13 19  1  6  0  0  0
 13 23  1  0  0  0  0
 13 25  2  0  0  0  0
 14 21  1  0  0  0  0
 14 24  1  0  0  0  0
 14 27  2  0  0  0  0
 15 16  1  0  0  0  0
 15 17  1  0  0  0  0
 16 18  1  0  0  0  0
 17 19  1  0  0  0  0
 18 26  1  0  0  0  0
 19 26  1  0  0  0  0
 20 22  1  1  0  0  0
 21 26  1  6  0  0  0
 22 24  1  0  0  0  0
 25 28  1  0  0  0  0
  1 29  1  0  0  0  0
  2 30  1  0  0  0  0
  3 31  1  0  0  0  0
  4 32  1  0  0  0  0
  5 33  1  0  0  0  0
  6 34  1  0  0  0  0
  7 35  1  0  0  0  0
  8 36  1  0  0  0  0
  9 37  1  0  0  0  0
 10 38  1  0  0  0  0
 15 39  1  0  0  0  0
 15 40  1  0  0  0  0
 16 41  1  0  0  0  0
 16 42  1  0  0  0  0
 17 43  1  0  0  0  0
 17 44  1  0  0  0  0
 18 45  1  0  0  0  0
 18 46  1  0  0  0  0
 19 47  1  0  0  0  0
 20 48  1  0  0  0  0
 20 49  1  0  0  0  0
 21 50  1  0  0  0  0
 21 51  1  0  0  0  0
 22 52  1  0  0  0  0
 23 53  1  0  0  0  0
 23 54  1  0  0  0  0
 24 55  1  0  0  0  0
 25 56  1  0  0  0  0
 26 57  1  0  0  0  0
 28 58  1  0  0  0  0
M  CHG  2  25   1  26   1
M  END
>  <idnumber>
Z1738108262

>  <Chemgauss4>
-14.1181869506836

>  <Hetero-Bemis-Murcko>
c1ccc(cc1)CC(c2ccccc2)NCC[NH+]3CCCCC3

>  <Hetero-Bemis-Murcko>
c1ccc(cc1)CC(c2ccccc2)NCC[NH+]3CCCCC3

>  <MW>
380.492

>  <HBD>
3

>  <HBA>
4

>  <RotBonds>
7

>  <XLogP>
3.25999999046326

>  <sLogP>
2.688

>  <TPSA>
93.7600021362305

>  <FSP3>
0.364

>  <QED>
0.298

$$$$
Z2255396256
  -OEChem-04242015583D

 57 60  0     1  0  0  0  0  0999 V2000
  -13.8543   15.2799   72.9455 C   0  0  0  0  0  0  0  0  0  0  0  0
  -12.5783   15.8227   73.0963 C   0  0  0  0  0  0  0  0  0  0  0  0
  -14.2028   14.6369   71.7577 C   0  0  0  0  0  0  0  0  0  0  0  0
  -11.6508   15.7228   72.0593 C   0  0  0  0  0  0  0  0  0  0  0  0
  -13.2753   14.5370   70.7206 C   0  0  0  0  0  0  0  0  0  0  0  0
  -10.5401   10.0958   71.3002 C   0  0  0  0  0  0  0  0  0  0  0  0
  -10.5751    8.7667   71.7874 C   0  0  0  0  0  0  0  0  0  0  0  0
  -11.9993   15.0799   70.8714 C   0  0  0  0  0  0  0  0  0  0  0  0
  -11.3073   10.1315   70.1539 C   0  0  0  0  0  0  0  0  0  0  0  0
  -11.3594    8.0360   70.9173 C   0  0  0  0  0  0  0  0  0  0  0  0
  -11.5894   11.2938   69.2726 C   0  0  0  0  0  0  0  0  0  0  0  0
  -10.1719   13.6432   67.8167 C   0  0  0  0  0  0  0  0  0  0  0  0
   -9.9164    8.1566   72.9748 C   0  0  0  0  0  0  0  0  0  0  0  0
  -11.7001    6.5945   71.0387 C   0  0  0  0  0  0  0  0  0  0  0  0
  -10.5374    6.7860   73.3102 C   0  0  0  0  0  0  0  0  0  0  0  0
  -10.7551    5.9219   72.0527 C   0  0  0  0  0  0  0  0  0  0  0  0
  -12.0028   12.3080   64.2752 C   0  0  0  0  0  0  0  0  0  0  0  0
  -10.6963   11.7430   64.8308 C   0  0  0  0  0  0  0  0  0  0  0  0
  -12.7729   13.0676   65.3546 C   0  0  0  0  0  0  0  0  0  0  0  0
   -9.8634   12.8338   65.4986 C   0  0  0  0  0  0  0  0  0  0  0  0
  -11.8994   14.1324   66.0145 C   0  0  0  0  0  0  0  0  0  0  0  0
  -10.9965   14.9716   69.7490 C   0  0  0  0  0  0  0  0  0  0  0  0
  -11.2077   13.7184   68.9098 C   0  0  2  0  0  0  0  0  0  0  0  0
  -11.8024    8.8706   69.9301 N   0  0  0  0  0  0  0  0  0  0  0  0
  -10.6487   13.5441   66.5102 N   0  0  0  0  0  0  0  0  0  0  0  0
  -11.0092   12.5028   69.6449 N   0  0  0  0  0  0  0  0  0  0  0  0
  -12.3178   11.1430   68.2953 O   0  0  0  0  0  0  0  0  0  0  0  0
   -8.9756   13.6689   68.1171 O   0  0  0  0  0  0  0  0  0  0  0  0
  -14.5759   15.3566   73.7536 H   0  0  0  0  0  0  0  0  0  0  0  0
  -12.3064   16.3224   74.0215 H   0  0  0  0  0  0  0  0  0  0  0  0
  -15.1958   14.2132   71.6404 H   0  0  0  0  0  0  0  0  0  0  0  0
  -10.6590   16.1489   72.1856 H   0  0  0  0  0  0  0  0  0  0  0  0
  -13.5557   14.0344   69.7987 H   0  0  0  0  0  0  0  0  0  0  0  0
  -10.0151   10.9343   71.7374 H   0  0  0  0  0  0  0  0  0  0  0  0
   -8.8408    8.0412   72.8014 H   0  0  0  0  0  0  0  0  0  0  0  0
  -10.0416    8.8301   73.8314 H   0  0  0  0  0  0  0  0  0  0  0  0
  -12.7401    6.4610   71.3551 H   0  0  0  0  0  0  0  0  0  0  0  0
  -11.5847    6.1157   70.0590 H   0  0  0  0  0  0  0  0  0  0  0  0
   -9.8771    6.2454   74.0007 H   0  0  0  0  0  0  0  0  0  0  0  0
  -11.4905    6.9352   73.8300 H   0  0  0  0  0  0  0  0  0  0  0  0
  -11.1764    4.9549   72.3574 H   0  0  0  0  0  0  0  0  0  0  0  0
   -9.7932    5.7130   71.5711 H   0  0  0  0  0  0  0  0  0  0  0  0
  -11.7914   12.9730   63.4304 H   0  0  0  0  0  0  0  0  0  0  0  0
  -12.6224   11.4878   63.8923 H   0  0  0  0  0  0  0  0  0  0  0  0
  -10.9170   10.9511   65.5552 H   0  0  0  0  0  0  0  0  0  0  0  0
  -10.1179   11.2851   64.0192 H   0  0  0  0  0  0  0  0  0  0  0  0
  -13.6574   13.5424   64.9118 H   0  0  0  0  0  0  0  0  0  0  0  0
  -13.1323   12.3631   66.1129 H   0  0  0  0  0  0  0  0  0  0  0  0
   -8.9957   12.3967   66.0062 H   0  0  0  0  0  0  0  0  0  0  0  0
   -9.4850   13.5260   64.7403 H   0  0  0  0  0  0  0  0  0  0  0  0
  -11.7192   14.9421   65.3057 H   0  0  0  0  0  0  0  0  0  0  0  0
  -12.4156   14.5671   66.8785 H   0  0  0  0  0  0  0  0  0  0  0  0
  -11.0788   15.8686   69.1204 H   0  0  0  0  0  0  0  0  0  0  0  0
   -9.9782   14.9994   70.1606 H   0  0  0  0  0  0  0  0  0  0  0  0
  -12.1930   13.6816   68.4442 H   0  0  0  0  0  0  0  0  0  0  0  0
  -12.3965    8.6028   69.1570 H   0  0  0  0  0  0  0  0  0  0  0  0
  -10.4678   12.5553   70.5074 H   0  0  0  0  0  0  0  0  0  0  0  0
  1  2  2  0  0  0  0
  1  3  1  0  0  0  0
  2  4  1  0  0  0  0
  3  5  2  0  0  0  0
  4  8  2  0  0  0  0
  5  8  1  0  0  0  0
  6  7  1  0  0  0  0
  6  9  2  0  0  0  0
  7 10  2  0  0  0  0
  7 13  1  0  0  0  0
  8 22  1  0  0  0  0
  9 11  1  0  0  0  0
  9 24  1  0  0  0  0
 10 14  1  0  0  0  0
 10 24  1  0  0  0  0
 11 26  1  0  0  0  0
 11 27  2  0  0  0  0
 12 23  1  0  0  0  0
 12 25  1  0  0  0  0
 12 28  2  0  0  0  0
 13 15  1  0  0  0  0
 14 16  1  0  0  0  0
 15 16  1  0  0  0  0
 17 18  1  0  0  0  0
 17 19  1  0  0  0  0
 18 20  1  0  0  0  0
 19 21  1  0  0  0  0
 20 25  1  0  0  0  0
 21 25  1  0  0  0  0
 22 23  1  1  0  0  0
 23 26  1  0  0  0  0
  1 29  1  0  0  0  0
  2 30  1  0  0  0  0
  3 31  1  0  0  0  0
  4 32  1  0  0  0  0
  5 33  1  0  0  0  0
  6 34  1  0  0  0  0
 13 35  1  0  0  0  0
 13 36  1  0  0  0  0
 14 37  1  0  0  0  0
 14 38  1  0  0  0  0
 15 39  1  0  0  0  0
 15 40  1  0  0  0  0
 16 41  1  0  0  0  0
 16 42  1  0  0  0  0
 17 43  1  0  0  0  0
 17 44  1  0  0  0  0
 18 45  1  0  0  0  0
 18 46  1  0  0  0  0
 19 47  1  0  0  0  0
 19 48  1  0  0  0  0
 20 49  1  0  0  0  0
 20 50  1  0  0  0  0
 21 51  1  0  0  0  0
 21 52  1  0  0  0  0
 22 53  1  0  0  0  0
 22 54  1  0  0  0  0
 23 55  1  0  0  0  0
 24 56  1  0  0  0  0
 26 57  1  0  0  0  0
M  END
>  <idnumber>
Z2255396256

>  <Chemgauss4>
-14.1086730957031

>  <Hetero-Bemis-Murcko>
c1ccc(cc1)CC(CN2CCCCC2)NCc3cc4c([nH]3)CCCC4

>  <Hetero-Bemis-Murcko>
c1ccc(cc1)CC(CN2CCCCC2)NCc3cc4c([nH]3)CCCC4

>  <MW>
379.504

>  <HBD>
2

>  <HBA>
2

>  <RotBonds>
5

>  <XLogP>
3.01099944114685

>  <sLogP>
3.247

>  <TPSA>
65.1999969482422

>  <FSP3>
0.478

>  <QED>
0.838

$$$$
Z2089675007
  -OEChem-04242015583D

 57 60  0     1  0  0  0  0  0999 V2000
  -12.6960   16.2795   73.3977 C   0  0  0  0  0  0  0  0  0  0  0  0
  -13.6577   15.3516   72.9979 C   0  0  0  0  0  0  0  0  0  0  0  0
  -11.5553   16.4806   72.6205 C   0  0  0  0  0  0  0  0  0  0  0  0
  -13.4786   14.6249   71.8208 C   0  0  0  0  0  0  0  0  0  0  0  0
  -11.3762   15.7539   71.4435 C   0  0  0  0  0  0  0  0  0  0  0  0
  -10.6912   13.2486   66.8125 C   0  0  0  0  0  0  0  0  0  0  0  0
  -12.5475   14.7604   66.4873 C   0  0  0  0  0  0  0  0  0  0  0  0
  -10.8732   12.7479   65.5234 C   0  0  0  0  0  0  0  0  0  0  0  0
  -12.7294   14.2597   65.1982 C   0  0  0  0  0  0  0  0  0  0  0  0
  -11.5284   14.2549   67.2945 C   0  0  0  0  0  0  0  0  0  0  0  0
  -12.3379   14.8260   71.0436 C   0  0  0  0  0  0  0  0  0  0  0  0
  -11.8922   13.2534   64.7163 C   0  0  0  0  0  0  0  0  0  0  0  0
  -13.4348    9.1894   72.3950 C   0  0  0  0  0  0  0  0  0  0  0  0
  -10.9757   10.4669   69.7402 C   0  0  0  0  0  0  0  0  0  0  0  0
  -11.7442   11.6432   69.2667 C   0  0  0  0  0  0  0  0  0  0  0  0
  -12.9530    9.9617   71.1822 C   0  0  0  0  0  0  0  0  0  0  0  0
  -11.2145    5.6208   72.0855 C   0  0  0  0  0  0  0  0  0  0  0  0
  -11.0016    5.8862   70.5985 C   0  0  0  0  0  0  0  0  0  0  0  0
  -10.6400    6.7469   72.9419 C   0  0  0  0  0  0  0  0  0  0  0  0
  -11.5702    7.2401   70.1798 C   0  0  0  0  0  0  0  0  0  0  0  0
  -11.1811    8.1254   72.5454 C   0  0  1  0  0  0  0  0  0  0  0  0
  -11.0082    8.3797   71.0468 C   0  0  2  0  0  0  0  0  0  0  0  0
  -11.3312   14.7986   68.6912 C   0  0  0  0  0  0  0  0  0  0  0  0
  -12.1421   14.0346   69.7617 C   0  0  1  0  0  0  0  0  0  0  0  0
  -12.5711    8.2742   72.9425 N   0  0  0  0  0  0  0  0  0  0  0  0
  -11.6138    9.6630   70.6815 N   0  0  0  0  0  0  0  0  0  0  0  0
  -11.5080   12.7641   70.0314 N   0  0  0  0  0  0  0  0  0  0  0  0
  -14.5661    9.3811   72.8457 O   0  0  0  0  0  0  0  0  0  0  0  0
   -9.8649   10.3234   69.2475 O   0  0  0  0  0  0  0  0  0  0  0  0
  -12.4817   11.5478   68.2974 O   0  0  0  0  0  0  0  0  0  0  0  0
  -12.0654   12.7745   63.4773 F   0  0  0  0  0  0  0  0  0  0  0  0
  -12.8363   16.8463   74.3135 H   0  0  0  0  0  0  0  0  0  0  0  0
  -14.5465   15.1956   73.6023 H   0  0  0  0  0  0  0  0  0  0  0  0
  -10.8069   17.2037   72.9310 H   0  0  0  0  0  0  0  0  0  0  0  0
  -14.2330   13.9039   71.5172 H   0  0  0  0  0  0  0  0  0  0  0  0
  -10.4843   15.9172   70.8444 H   0  0  0  0  0  0  0  0  0  0  0  0
   -9.8949   12.8479   67.4343 H   0  0  0  0  0  0  0  0  0  0  0  0
  -13.2044   15.5447   66.8542 H   0  0  0  0  0  0  0  0  0  0  0  0
  -10.2211   11.9650   65.1479 H   0  0  0  0  0  0  0  0  0  0  0  0
  -13.5230   14.6527   64.5696 H   0  0  0  0  0  0  0  0  0  0  0  0
  -13.6532    9.7633   70.3623 H   0  0  0  0  0  0  0  0  0  0  0  0
  -13.0084   11.0281   71.4267 H   0  0  0  0  0  0  0  0  0  0  0  0
  -12.2863    5.5088   72.2891 H   0  0  0  0  0  0  0  0  0  0  0  0
  -10.7387    4.6725   72.3602 H   0  0  0  0  0  0  0  0  0  0  0  0
   -9.9286    5.8561   70.3723 H   0  0  0  0  0  0  0  0  0  0  0  0
  -11.4736    5.0909   70.0106 H   0  0  0  0  0  0  0  0  0  0  0  0
  -10.8408    6.5477   74.0015 H   0  0  0  0  0  0  0  0  0  0  0  0
   -9.5476    6.7523   72.8328 H   0  0  0  0  0  0  0  0  0  0  0  0
  -11.3299    7.4195   69.1250 H   0  0  0  0  0  0  0  0  0  0  0  0
  -12.6640    7.2018   70.2545 H   0  0  0  0  0  0  0  0  0  0  0  0
  -10.6296    8.8896   73.1081 H   0  0  0  0  0  0  0  0  0  0  0  0
   -9.9314    8.4441   70.8397 H   0  0  0  0  0  0  0  0  0  0  0  0
  -11.6313   15.8559   68.6811 H   0  0  0  0  0  0  0  0  0  0  0  0
  -10.2612   14.8030   68.9374 H   0  0  0  0  0  0  0  0  0  0  0  0
  -13.1308   13.8008   69.3465 H   0  0  0  0  0  0  0  0  0  0  0  0
  -12.9257    7.6621   73.6713 H   0  0  0  0  0  0  0  0  0  0  0  0
  -10.8642   12.6952   70.8143 H   0  0  0  0  0  0  0  0  0  0  0  0
  1  2  2  0  0  0  0
  1  3  1  0  0  0  0
  2  4  1  0  0  0  0
  3  5  2  0  0  0  0
  4 11  2  0  0  0  0
  5 11  1  0  0  0  0
  6  8  1  0  0  0  0
  6 10  2  0  0  0  0
  7  9  2  0  0  0  0
  7 10  1  0  0  0  0
  8 12  2  0  0  0  0
  9 12  1  0  0  0  0
 10 23  1  0  0  0  0
 11 24  1  0  0  0  0
 12 31  1  0  0  0  0
 13 16  1  0  0  0  0
 13 25  1  0  0  0  0
 13 28  2  0  0  0  0
 14 15  1  0  0  0  0
 14 26  1  0  0  0  0
 14 29  2  0  0  0  0
 15 27  1  0  0  0  0
 15 30  2  0  0  0  0
 16 26  1  0  0  0  0
 17 18  1  0  0  0  0
 17 19  1  0  0  0  0
 18 20  1  0  0  0  0
 19 21  1  6  0  0  0
 20 22  1  1  0  0  0
 21 22  1  0  0  0  0
 21 25  1  0  0  0  0
 22 26  1  0  0  0  0
 23 24  1  6  0  0  0
 24 27  1  0  0  0  0
  1 32  1  0  0  0  0
  2 33  1  0  0  0  0
  3 34  1  0  0  0  0
  4 35  1  0  0  0  0
  5 36  1  0  0  0  0
  6 37  1  0  0  0  0
  7 38  1  0  0  0  0
  8 39  1  0  0  0  0
  9 40  1  0  0  0  0
 16 41  1  0  0  0  0
 16 42  1  0  0  0  0
 17 43  1  0  0  0  0
 17 44  1  0  0  0  0
 18 45  1  0  0  0  0
 18 46  1  0  0  0  0
 19 47  1  0  0  0  0
 19 48  1  0  0  0  0
 20 49  1  0  0  0  0
 20 50  1  0  0  0  0
 21 51  1  0  0  0  0
 22 52  1  0  0  0  0
 23 53  1  0  0  0  0
 23 54  1  0  0  0  0
 24 55  1  0  0  0  0
 25 56  1  0  0  0  0
 27 57  1  0  0  0  0
M  END
>  <idnumber>
Z2089675007

>  <Chemgauss4>
-14.1047163009644

>  <Hetero-Bemis-Murcko>
c1ccc(cc1)CC(c2ccccc2)NCCN3CCNC4C3CCCC4

>  <Hetero-Bemis-Murcko>
c1ccc(cc1)CC(c2ccccc2)NCCN3CCNC4C3CCCC4

>  <MW>
423.488

>  <HBD>
2

>  <HBA>
3

>  <RotBonds>
4

>  <XLogP>
2.85999965667725

>  <sLogP>
2.495

>  <TPSA>
78.5099945068359

>  <FSP3>
0.375

>  <QED>
0.742

$$$$
s_2708____1181760____14480884
  -OEChem-04242015583D

 62 64  0     1  0  0  0  0  0999 V2000
  -13.6539   15.4722   73.4256 C   0  0  0  0  0  0  0  0  0  0  0  0
  -12.4332   16.1468   73.4046 C   0  0  0  0  0  0  0  0  0  0  0  0
  -14.1134   14.8259   72.2781 C   0  0  0  0  0  0  0  0  0  0  0  0
  -11.6721   16.1752   72.2361 C   0  0  0  0  0  0  0  0  0  0  0  0
  -13.3523   14.8542   71.1096 C   0  0  0  0  0  0  0  0  0  0  0  0
  -12.1316   15.5289   71.0885 C   0  0  0  0  0  0  0  0  0  0  0  0
  -11.8066   11.8882   69.4528 C   0  0  0  0  0  0  0  0  0  0  0  0
  -12.0038   12.9789   63.7917 C   0  0  0  0  0  0  0  0  0  0  0  0
  -12.9887   12.9604   64.9564 C   0  0  0  0  0  0  0  0  0  0  0  0
  -10.5948   12.6065   64.2425 C   0  0  0  0  0  0  0  0  0  0  0  0
  -11.1476    7.1347   70.7021 C   0  0  0  0  0  0  0  0  0  0  0  0
  -12.5168   13.8460   66.1074 C   0  0  0  0  0  0  0  0  0  0  0  0
  -10.1188   13.4913   65.3924 C   0  0  0  0  0  0  0  0  0  0  0  0
  -10.6556    8.5783   70.6601 C   0  0  0  0  0  0  0  0  0  0  0  0
  -12.3580    6.9757   71.6100 C   0  0  0  0  0  0  0  0  0  0  0  0
  -12.9948    9.3691   71.1936 C   0  0  0  0  0  0  0  0  0  0  0  0
  -11.1029   13.4685   66.5697 C   0  0  0  0  0  0  0  0  0  0  0  0
  -11.7853    9.5344   70.2779 C   0  0  1  0  0  0  0  0  0  0  0  0
  -14.7089    7.7268   71.9617 C   0  0  0  0  0  0  0  0  0  0  0  0
  -11.3080   15.5594   69.8226 C   0  0  0  0  0  0  0  0  0  0  0  0
  -10.6326   14.4014   67.6840 C   0  0  0  0  0  0  0  0  0  0  0  0
  -11.5019   14.3081   68.9475 C   0  0  1  0  0  0  0  0  0  0  0  0
  -11.3182   10.8996   70.3032 N   0  0  0  0  0  0  0  0  0  0  0  0
  -11.1840   13.1111   69.6899 N   0  0  0  0  0  0  0  0  0  0  0  0
  -13.4455    7.9258   71.1697 N   0  3  2  0  0  0  0  0  0  0  0  0
  -12.6762   11.7067   68.6017 O   0  0  0  0  0  0  0  0  0  0  0  0
  -14.2458   15.4491   74.3360 H   0  0  0  0  0  0  0  0  0  0  0  0
  -12.0747   16.6492   74.2983 H   0  0  0  0  0  0  0  0  0  0  0  0
  -15.0632   14.2996   72.2944 H   0  0  0  0  0  0  0  0  0  0  0  0
  -10.7223   16.7035   72.2289 H   0  0  0  0  0  0  0  0  0  0  0  0
  -13.7183   14.3480   70.2203 H   0  0  0  0  0  0  0  0  0  0  0  0
  -12.3385   12.2822   63.0148 H   0  0  0  0  0  0  0  0  0  0  0  0
  -11.9901   13.9792   63.3417 H   0  0  0  0  0  0  0  0  0  0  0  0
  -13.9729   13.2974   64.6113 H   0  0  0  0  0  0  0  0  0  0  0  0
  -13.1114   11.9310   65.3150 H   0  0  0  0  0  0  0  0  0  0  0  0
  -10.5781   11.5564   64.5594 H   0  0  0  0  0  0  0  0  0  0  0  0
   -9.9026   12.6956   63.3975 H   0  0  0  0  0  0  0  0  0  0  0  0
  -11.4022    6.8040   69.6875 H   0  0  0  0  0  0  0  0  0  0  0  0
  -10.3393    6.4832   71.0533 H   0  0  0  0  0  0  0  0  0  0  0  0
  -12.5367   14.8953   65.7858 H   0  0  0  0  0  0  0  0  0  0  0  0
  -13.2202   13.7575   66.9440 H   0  0  0  0  0  0  0  0  0  0  0  0
   -9.1301   13.1524   65.7242 H   0  0  0  0  0  0  0  0  0  0  0  0
   -9.9959   14.5194   65.0283 H   0  0  0  0  0  0  0  0  0  0  0  0
  -10.2526    8.8477   71.6452 H   0  0  0  0  0  0  0  0  0  0  0  0
   -9.8308    8.6582   69.9419 H   0  0  0  0  0  0  0  0  0  0  0  0
  -12.7604    5.9596   71.5420 H   0  0  0  0  0  0  0  0  0  0  0  0
  -12.1175    7.2060   72.6539 H   0  0  0  0  0  0  0  0  0  0  0  0
  -12.7652    9.6231   72.2352 H   0  0  0  0  0  0  0  0  0  0  0  0
  -13.8378    9.9755   70.8444 H   0  0  0  0  0  0  0  0  0  0  0  0
  -11.1324   12.4488   66.9758 H   0  0  0  0  0  0  0  0  0  0  0  0
  -12.0865    9.3404   69.2413 H   0  0  0  0  0  0  0  0  0  0  0  0
  -14.4907    7.9662   73.0041 H   0  0  0  0  0  0  0  0  0  0  0  0
  -15.4675    8.3983   71.5550 H   0  0  0  0  0  0  0  0  0  0  0  0
  -15.0100    6.6830   71.8536 H   0  0  0  0  0  0  0  0  0  0  0  0
  -10.2524   15.6585   70.1083 H   0  0  0  0  0  0  0  0  0  0  0  0
  -11.5489   16.4646   69.2492 H   0  0  0  0  0  0  0  0  0  0  0  0
  -10.6248   15.4311   67.3054 H   0  0  0  0  0  0  0  0  0  0  0  0
   -9.5965   14.1421   67.9331 H   0  0  0  0  0  0  0  0  0  0  0  0
  -12.5551   14.2211   68.6542 H   0  0  0  0  0  0  0  0  0  0  0  0
  -10.5984   11.1515   70.9737 H   0  0  0  0  0  0  0  0  0  0  0  0
  -10.5093   13.1778   70.4456 H   0  0  0  0  0  0  0  0  0  0  0  0
  -13.6760    7.6946   70.1935 H   0  0  0  0  0  0  0  0  0  0  0  0
  1  2  2  0  0  0  0
  1  3  1  0  0  0  0
  2  4  1  0  0  0  0
  3  5  2  0  0  0  0
  4  6  2  0  0  0  0
  5  6  1  0  0  0  0
  6 20  1  0  0  0  0
  7 23  1  0  0  0  0
  7 24  1  0  0  0  0
  7 26  2  0  0  0  0
  8  9  1  0  0  0  0
  8 10  1  0  0  0  0
  9 12  1  0  0  0  0
 10 13  1  0  0  0  0
 11 14  1  0  0  0  0
 11 15  1  0  0  0  0
 12 17  1  0  0  0  0
 13 17  1  0  0  0  0
 14 18  1  0  0  0  0
 15 25  1  0  0  0  0
 16 18  1  0  0  0  0
 16 25  1  0  0  0  0
 17 21  1  0  0  0  0
 18 23  1  6  0  0  0
 19 25  1  1  0  0  0
 20 22  1  1  0  0  0
 21 22  1  0  0  0  0
 22 24  1  0  0  0  0
  1 27  1  0  0  0  0
  2 28  1  0  0  0  0
  3 29  1  0  0  0  0
  4 30  1  0  0  0  0
  5 31  1  0  0  0  0
  8 32  1  0  0  0  0
  8 33  1  0  0  0  0
  9 34  1  0  0  0  0
  9 35  1  0  0  0  0
 10 36  1  0  0  0  0
 10 37  1  0  0  0  0
 11 38  1  0  0  0  0
 11 39  1  0  0  0  0
 12 40  1  0  0  0  0
 12 41  1  0  0  0  0
 13 42  1  0  0  0  0
 13 43  1  0  0  0  0
 14 44  1  0  0  0  0
 14 45  1  0  0  0  0
 15 46  1  0  0  0  0
 15 47  1  0  0  0  0
 16 48  1  0  0  0  0
 16 49  1  0  0  0  0
 17 50  1  0  0  0  0
 18 51  1  0  0  0  0
 19 52  1  0  0  0  0
 19 53  1  0  0  0  0
 19 54  1  0  0  0  0
 20 55  1  0  0  0  0
 20 56  1  0  0  0  0
 21 57  1  0  0  0  0
 21 58  1  0  0  0  0
 22 59  1  0  0  0  0
 23 60  1  0  0  0  0
 24 61  1  0  0  0  0
 25 62  1  0  0  0  0
M  CHG  1  25   1
M  END
>  <idnumber>
s_2708____1181760____14480884

>  <Chemgauss4>
-14.0946607589722

>  <Hetero-Bemis-Murcko>
c1ccc(cc1)CC(CC2CCCCC2)NCNC3CCC[NH2+]C3

>  <Hetero-Bemis-Murcko>
c1ccc(cc1)CC(CC2CCCCC2)NCNC3CCC[NH2+]C3

>  <MW>
357.542

>  <HBD>
2

>  <HBA>
2

>  <RotBonds>
6

>  <XLogP>
4.62799978256226

>  <sLogP>
3.962

>  <TPSA>
45.5699996948242

>  <FSP3>
0.682

>  <QED>
0.809

$$$$
Z2482142286
  -OEChem-04242015583D

 57 58  0     1  0  0  0  0  0999 V2000
  -12.6975   15.9752   73.7833 C   0  0  0  0  0  0  0  0  0  0  0  0
  -13.6679   15.0384   73.4278 C   0  0  0  0  0  0  0  0  0  0  0  0
  -11.5907   16.1799   72.9593 C   0  0  0  0  0  0  0  0  0  0  0  0
  -13.5315   14.3062   72.2485 C   0  0  0  0  0  0  0  0  0  0  0  0
  -11.4544   15.4477   71.7799 C   0  0  0  0  0  0  0  0  0  0  0  0
  -12.4247   14.5109   71.4245 C   0  0  0  0  0  0  0  0  0  0  0  0
  -11.7758   11.3526   69.5644 C   0  0  0  0  0  0  0  0  0  0  0  0
  -11.5217   14.5005   69.0787 C   0  0  0  0  0  0  0  0  0  0  0  0
  -11.3040   16.1168   64.7018 C   0  0  0  0  0  0  0  0  0  0  0  0
  -12.2251   12.5394   64.2363 C   0  0  0  0  0  0  0  0  0  0  0  0
  -11.8127   11.3942   63.3354 C   0  0  0  0  0  0  0  0  0  0  0  0
  -10.1227   11.7393   64.9015 C   0  0  0  0  0  0  0  0  0  0  0  0
  -10.8845   13.0415   64.7264 C   0  0  2  0  0  0  0  0  0  0  0  0
  -10.2454    8.5226   71.7813 C   0  0  0  0  0  0  0  0  0  0  0  0
  -12.6306    9.2329   71.5177 C   0  0  0  0  0  0  0  0  0  0  0  0
  -10.8835   10.1968   69.9907 C   0  0  0  0  0  0  0  0  0  0  0  0
  -10.9581   13.8814   65.9871 C   0  0  0  0  0  0  0  0  0  0  0  0
  -11.9214   15.9569   67.0952 C   0  0  0  0  0  0  0  0  0  0  0  0
  -12.2762   13.7179   70.1468 C   0  0  1  0  0  0  0  0  0  0  0  0
  -11.8033   15.1479   65.7960 C   0  0  1  0  0  0  0  0  0  0  0  0
  -11.1722    9.6828   71.4091 C   0  0  0  0  0  0  0  0  0  0  0  0
  -12.3794   15.1756   68.2215 N   0  0  0  0  0  0  0  0  0  0  0  0
  -11.5754   12.4726   70.3585 N   0  0  0  0  0  0  0  0  0  0  0  0
  -10.1359   16.5649   64.8909 O   0  5  0  0  0  0  0  0  0  0  0  0
  -12.5516   11.2910   68.6145 O   0  0  0  0  0  0  0  0  0  0  0  0
  -10.2960   14.4872   68.9837 O   0  0  0  0  0  0  0  0  0  0  0  0
  -12.1043   16.3503   63.7537 O   0  0  0  0  0  0  0  0  0  0  0  0
  -10.6068   10.8454   63.8873 O   0  0  0  0  0  0  0  0  0  0  0  0
  -12.8045   16.5462   74.7010 H   0  0  0  0  0  0  0  0  0  0  0  0
  -14.5302   14.8796   74.0687 H   0  0  0  0  0  0  0  0  0  0  0  0
  -10.8356   16.9100   73.2352 H   0  0  0  0  0  0  0  0  0  0  0  0
  -14.2924   13.5782   71.9796 H   0  0  0  0  0  0  0  0  0  0  0  0
  -10.5887   15.6138   71.1442 H   0  0  0  0  0  0  0  0  0  0  0  0
  -12.8137   13.2974   63.7121 H   0  0  0  0  0  0  0  0  0  0  0  0
  -12.8245   12.1589   65.0724 H   0  0  0  0  0  0  0  0  0  0  0  0
  -12.5767   10.6145   63.2706 H   0  0  0  0  0  0  0  0  0  0  0  0
  -11.5859   11.7469   62.3235 H   0  0  0  0  0  0  0  0  0  0  0  0
   -9.0423   11.8680   64.7871 H   0  0  0  0  0  0  0  0  0  0  0  0
  -10.3167   11.2738   65.8742 H   0  0  0  0  0  0  0  0  0  0  0  0
  -10.4134   13.6257   63.9240 H   0  0  0  0  0  0  0  0  0  0  0  0
  -10.3706    7.6887   71.0821 H   0  0  0  0  0  0  0  0  0  0  0  0
  -10.4609    8.1451   72.7857 H   0  0  0  0  0  0  0  0  0  0  0  0
   -9.1942    8.8294   71.7545 H   0  0  0  0  0  0  0  0  0  0  0  0
  -12.8406    8.4207   70.8136 H   0  0  0  0  0  0  0  0  0  0  0  0
  -12.8501    8.8645   72.5254 H   0  0  0  0  0  0  0  0  0  0  0  0
  -13.3187   10.0570   71.3002 H   0  0  0  0  0  0  0  0  0  0  0  0
   -9.8335   10.5032   69.9047 H   0  0  0  0  0  0  0  0  0  0  0  0
  -11.0504    9.3913   69.2639 H   0  0  0  0  0  0  0  0  0  0  0  0
  -11.3969   13.2664   66.7824 H   0  0  0  0  0  0  0  0  0  0  0  0
   -9.9392   14.1308   66.3056 H   0  0  0  0  0  0  0  0  0  0  0  0
  -12.6307   16.7817   66.9670 H   0  0  0  0  0  0  0  0  0  0  0  0
  -10.9575   16.3923   67.3803 H   0  0  0  0  0  0  0  0  0  0  0  0
  -13.2604   13.4369   69.7528 H   0  0  0  0  0  0  0  0  0  0  0  0
  -12.8183   14.8372   65.5114 H   0  0  0  0  0  0  0  0  0  0  0  0
  -11.0155   10.4935   72.1317 H   0  0  0  0  0  0  0  0  0  0  0  0
  -13.3816   15.1265   68.3795 H   0  0  0  0  0  0  0  0  0  0  0  0
  -10.9072   12.4144   71.1213 H   0  0  0  0  0  0  0  0  0  0  0  0
  1  2  2  0  0  0  0
  1  3  1  0  0  0  0
  2  4  1  0  0  0  0
  3  5  2  0  0  0  0
  4  6  2  0  0  0  0
  5  6  1  0  0  0  0
  6 19  1  0  0  0  0
  7 16  1  0  0  0  0
  7 23  1  0  0  0  0
  7 25  2  0  0  0  0
  8 19  1  6  0  0  0
  8 22  1  0  0  0  0
  8 26  2  0  0  0  0
  9 20  1  0  0  0  0
  9 24  1  0  0  0  0
  9 27  2  0  0  0  0
 10 11  1  0  0  0  0
 10 13  1  0  0  0  0
 11 28  1  0  0  0  0
 12 13  1  0  0  0  0
 12 28  1  0  0  0  0
 13 17  1  1  0  0  0
 14 21  1  0  0  0  0
 15 21  1  0  0  0  0
 16 21  1  0  0  0  0
 17 20  1  0  0  0  0
 18 20  1  6  0  0  0
 18 22  1  0  0  0  0
 19 23  1  0  0  0  0
  1 29  1  0  0  0  0
  2 30  1  0  0  0  0
  3 31  1  0  0  0  0
  4 32  1  0  0  0  0
  5 33  1  0  0  0  0
 10 34  1  0  0  0  0
 10 35  1  0  0  0  0
 11 36  1  0  0  0  0
 11 37  1  0  0  0  0
 12 38  1  0  0  0  0
 12 39  1  0  0  0  0
 13 40  1  0  0  0  0
 14 41  1  0  0  0  0
 14 42  1  0  0  0  0
 14 43  1  0  0  0  0
 15 44  1  0  0  0  0
 15 45  1  0  0  0  0
 15 46  1  0  0  0  0
 16 47  1  0  0  0  0
 16 48  1  0  0  0  0
 17 49  1  0  0  0  0
 17 50  1  0  0  0  0
 18 51  1  0  0  0  0
 18 52  1  0  0  0  0
 19 53  1  0  0  0  0
 20 54  1  0  0  0  0
 21 55  1  0  0  0  0
 22 56  1  0  0  0  0
 23 57  1  0  0  0  0
M  CHG  1  24  -1
M  END
>  <idnumber>
Z2482142286

>  <Chemgauss4>
-14.0920095443726

>  <Hetero-Bemis-Murcko>
c1ccc(cc1)CCNCCCC2CCOC2

>  <Hetero-Bemis-Murcko>
c1ccc(cc1)CCNCCCC2CCOC2

>  <MW>
390.48

>  <HBD>
3

>  <HBA>
4

>  <RotBonds>
10

>  <XLogP>
1.53799998760223

>  <sLogP>
2.134

>  <TPSA>
107.559989929199

>  <FSP3>
0.571

>  <QED>
0.568

$$$$
Z2365978250
  -OEChem-04242015583D

 56 58  0     1  0  0  0  0  0999 V2000
  -10.9005   11.6161   63.4504 C   0  0  0  0  0  0  0  0  0  0  0  0
  -12.2591   16.1969   73.6760 C   0  0  0  0  0  0  0  0  0  0  0  0
   -9.8936   12.0039   64.3343 C   0  0  0  0  0  0  0  0  0  0  0  0
  -12.1760   12.1699   63.5598 C   0  0  0  0  0  0  0  0  0  0  0  0
  -13.2425   15.2167   73.5433 C   0  0  0  0  0  0  0  0  0  0  0  0
  -11.3571   16.4252   72.6367 C   0  0  0  0  0  0  0  0  0  0  0  0
  -10.1622   12.9455   65.3278 C   0  0  0  0  0  0  0  0  0  0  0  0
  -12.4447   13.1114   64.5533 C   0  0  0  0  0  0  0  0  0  0  0  0
  -13.3239   14.4646   72.3714 C   0  0  0  0  0  0  0  0  0  0  0  0
  -11.4386   15.6731   71.4648 C   0  0  0  0  0  0  0  0  0  0  0  0
  -11.4378   13.4993   65.4373 C   0  0  0  0  0  0  0  0  0  0  0  0
  -12.4220   14.6928   71.3321 C   0  0  0  0  0  0  0  0  0  0  0  0
  -11.2437   10.3507   69.8281 C   0  0  0  0  0  0  0  0  0  0  0  0
  -12.1460   11.4890   69.5263 C   0  0  0  0  0  0  0  0  0  0  0  0
  -10.9158    8.3881   71.3973 C   0  0  0  0  0  0  0  0  0  0  0  0
  -12.8232    9.8378   71.6714 C   0  0  0  0  0  0  0  0  0  0  0  0
  -11.8974    7.7495   72.3831 C   0  0  2  0  0  0  0  0  0  0  0  0
  -12.6527    8.9725   72.9085 C   0  0  2  0  0  0  0  0  0  0  0  0
  -11.2097    6.9369   73.4669 C   0  0  0  0  0  0  0  0  0  0  0  0
  -11.7276   14.5120   66.5059 C   0  0  0  0  0  0  0  0  0  0  0  0
  -12.0276   14.6541   68.8324 C   0  0  0  0  0  0  0  0  0  0  0  0
  -12.5096   13.8770   70.0603 C   0  0  1  0  0  0  0  0  0  0  0  0
  -11.6197    9.5680   70.8958 N   0  0  0  0  0  0  0  0  0  0  0  0
  -11.7820   12.6356   70.1965 N   0  0  0  0  0  0  0  0  0  0  0  0
  -13.9576    8.6021   73.4848 N   0  3  0  0  0  0  0  0  0  0  0  0
  -10.2680   10.2178   69.1031 O   0  0  0  0  0  0  0  0  0  0  0  0
  -13.0833   11.3442   68.7566 O   0  0  0  0  0  0  0  0  0  0  0  0
  -12.1731   13.8386   67.6742 O   0  0  0  0  0  0  0  0  0  0  0  0
  -10.6907   10.8840   62.6761 H   0  0  0  0  0  0  0  0  0  0  0  0
  -12.1966   16.7834   74.5880 H   0  0  0  0  0  0  0  0  0  0  0  0
   -8.9000   11.5737   64.2486 H   0  0  0  0  0  0  0  0  0  0  0  0
  -12.9599   11.8690   62.8711 H   0  0  0  0  0  0  0  0  0  0  0  0
  -13.9455   15.0396   74.3520 H   0  0  0  0  0  0  0  0  0  0  0  0
  -10.5921   17.1891   72.7392 H   0  0  0  0  0  0  0  0  0  0  0  0
   -9.3716   13.2415   66.0122 H   0  0  0  0  0  0  0  0  0  0  0  0
  -13.4415   13.5375   64.6311 H   0  0  0  0  0  0  0  0  0  0  0  0
  -14.0933   13.7028   72.2769 H   0  0  0  0  0  0  0  0  0  0  0  0
  -10.7315   15.8579   70.6603 H   0  0  0  0  0  0  0  0  0  0  0  0
   -9.9967    8.7313   71.8856 H   0  0  0  0  0  0  0  0  0  0  0  0
  -10.6518    7.7181   70.5733 H   0  0  0  0  0  0  0  0  0  0  0  0
  -13.6796    9.5380   71.0560 H   0  0  0  0  0  0  0  0  0  0  0  0
  -12.9062   10.9056   71.8961 H   0  0  0  0  0  0  0  0  0  0  0  0
  -12.5800    7.0965   71.8218 H   0  0  0  0  0  0  0  0  0  0  0  0
  -12.0892    9.5002   73.6871 H   0  0  0  0  0  0  0  0  0  0  0  0
  -10.5263    7.5695   74.0364 H   0  0  0  0  0  0  0  0  0  0  0  0
  -10.6405    6.1191   73.0212 H   0  0  0  0  0  0  0  0  0  0  0  0
  -11.9499    6.5169   74.1504 H   0  0  0  0  0  0  0  0  0  0  0  0
  -10.8313   15.0930   66.7484 H   0  0  0  0  0  0  0  0  0  0  0  0
  -12.5033   15.2118   66.1768 H   0  0  0  0  0  0  0  0  0  0  0  0
  -12.6294   15.5568   68.6796 H   0  0  0  0  0  0  0  0  0  0  0  0
  -10.9748   14.9445   68.9184 H   0  0  0  0  0  0  0  0  0  0  0  0
  -13.5510   13.5750   69.8915 H   0  0  0  0  0  0  0  0  0  0  0  0
  -10.9722   12.6079   70.8094 H   0  0  0  0  0  0  0  0  0  0  0  0
  -14.5615    9.4258   73.6102 H   0  0  0  0  0  0  0  0  0  0  0  0
  -13.8489    8.1568   74.4064 H   0  0  0  0  0  0  0  0  0  0  0  0
  -14.4620    7.9394   72.8801 H   0  0  0  0  0  0  0  0  0  0  0  0
  1  3  2  0  0  0  0
  1  4  1  0  0  0  0
  2  5  2  0  0  0  0
  2  6  1  0  0  0  0
  3  7  1  0  0  0  0
  4  8  2  0  0  0  0
  5  9  1  0  0  0  0
  6 10  2  0  0  0  0
  7 11  2  0  0  0  0
  8 11  1  0  0  0  0
  9 12  2  0  0  0  0
 10 12  1  0  0  0  0
 11 20  1  0  0  0  0
 12 22  1  0  0  0  0
 13 14  1  0  0  0  0
 13 23  1  0  0  0  0
 13 26  2  0  0  0  0
 14 24  1  0  0  0  0
 14 27  2  0  0  0  0
 15 17  1  0  0  0  0
 15 23  1  0  0  0  0
 16 18  1  0  0  0  0
 16 23  1  0  0  0  0
 17 18  1  0  0  0  0
 17 19  1  1  0  0  0
 18 25  1  1  0  0  0
 20 28  1  0  0  0  0
 21 22  1  6  0  0  0
 21 28  1  0  0  0  0
 22 24  1  0  0  0  0
  1 29  1  0  0  0  0
  2 30  1  0  0  0  0
  3 31  1  0  0  0  0
  4 32  1  0  0  0  0
  5 33  1  0  0  0  0
  6 34  1  0  0  0  0
  7 35  1  0  0  0  0
  8 36  1  0  0  0  0
  9 37  1  0  0  0  0
 10 38  1  0  0  0  0
 15 39  1  0  0  0  0
 15 40  1  0  0  0  0
 16 41  1  0  0  0  0
 16 42  1  0  0  0  0
 17 43  1  0  0  0  0
 18 44  1  0  0  0  0
 19 45  1  0  0  0  0
 19 46  1  0  0  0  0
 19 47  1  0  0  0  0
 20 48  1  0  0  0  0
 20 49  1  0  0  0  0
 21 50  1  0  0  0  0
 21 51  1  0  0  0  0
 22 52  1  0  0  0  0
 24 53  1  0  0  0  0
 25 54  1  0  0  0  0
 25 55  1  0  0  0  0
 25 56  1  0  0  0  0
M  CHG  1  25   1
M  END
>  <idnumber>
Z2365978250

>  <Chemgauss4>
-14.083794593811

>  <Hetero-Bemis-Murcko>
c1ccc(cc1)COCC(c2ccccc2)NCCN3CCCC3

>  <Hetero-Bemis-Murcko>
c1ccc(cc1)COCC(c2ccccc2)NCCN3CCCC3

>  <MW>
381.476

>  <HBD>
2

>  <HBA>
4

>  <RotBonds>
6

>  <XLogP>
1.58399999141693

>  <sLogP>
1.866

>  <TPSA>
86.2799987792969

>  <FSP3>
0.364

>  <QED>
0.748

$$$$
Z2364957987
  -OEChem-04242015583D

 49 51  0     1  0  0  0  0  0999 V2000
  -11.8359   12.5775   64.6650 C   0  0  0  0  0  0  0  0  0  0  0  0
  -13.1065   16.0077   73.1376 C   0  0  0  0  0  0  0  0  0  0  0  0
  -10.7537   12.2857   65.4952 C   0  0  0  0  0  0  0  0  0  0  0  0
  -12.8163   13.4757   65.0868 C   0  0  0  0  0  0  0  0  0  0  0  0
  -13.9157   14.9210   72.8060 C   0  0  0  0  0  0  0  0  0  0  0  0
  -12.0077   16.3281   72.3402 C   0  0  0  0  0  0  0  0  0  0  0  0
  -10.6520   12.8918   66.7474 C   0  0  0  0  0  0  0  0  0  0  0  0
  -12.7146   14.0818   66.3389 C   0  0  0  0  0  0  0  0  0  0  0  0
  -13.6261   14.1546   71.6771 C   0  0  0  0  0  0  0  0  0  0  0  0
  -11.7181   15.5616   71.2113 C   0  0  0  0  0  0  0  0  0  0  0  0
  -11.6325   13.7899   67.1693 C   0  0  0  0  0  0  0  0  0  0  0  0
  -12.5273   14.4749   70.8798 C   0  0  0  0  0  0  0  0  0  0  0  0
  -10.5177   10.2962   69.8508 C   0  0  0  0  0  0  0  0  0  0  0  0
  -11.4550   11.3101   69.3077 C   0  0  0  0  0  0  0  0  0  0  0  0
  -11.2393    8.0563   72.7080 C   0  0  0  0  0  0  0  0  0  0  0  0
  -10.3206    8.4280   71.5498 C   0  0  0  0  0  0  0  0  0  0  0  0
  -12.3931    9.6385   71.3360 C   0  0  0  0  0  0  0  0  0  0  0  0
  -12.6180    8.3721   72.1426 C   0  0  2  0  0  0  0  0  0  0  0  0
  -11.5230   14.4470   68.5263 C   0  0  0  0  0  0  0  0  0  0  0  0
  -12.2111   13.6405   69.6503 C   0  0  1  0  0  0  0  0  0  0  0  0
  -11.0295    9.4937   70.8448 N   0  0  0  0  0  0  0  0  0  0  0  0
  -11.3925   12.5008   69.9967 N   0  0  0  0  0  0  0  0  0  0  0  0
  -13.6026    8.5843   73.2162 N   0  3  0  0  0  0  0  0  0  0  0  0
   -9.3931   10.2769   69.3711 O   0  0  0  0  0  0  0  0  0  0  0  0
  -12.1670   11.0409   68.3525 O   0  0  0  0  0  0  0  0  0  0  0  0
  -11.9142   12.1065   63.6894 H   0  0  0  0  0  0  0  0  0  0  0  0
  -13.3330   16.6052   74.0158 H   0  0  0  0  0  0  0  0  0  0  0  0
   -9.9897   11.5872   65.1665 H   0  0  0  0  0  0  0  0  0  0  0  0
  -13.6583   13.7040   64.4401 H   0  0  0  0  0  0  0  0  0  0  0  0
  -14.7720   14.6721   73.4261 H   0  0  0  0  0  0  0  0  0  0  0  0
  -11.3782   17.1747   72.5974 H   0  0  0  0  0  0  0  0  0  0  0  0
   -9.8055   12.6582   67.3877 H   0  0  0  0  0  0  0  0  0  0  0  0
  -13.4832   14.7801   66.6592 H   0  0  0  0  0  0  0  0  0  0  0  0
  -14.2620   13.3096   71.4266 H   0  0  0  0  0  0  0  0  0  0  0  0
  -10.8599   15.8186   70.5961 H   0  0  0  0  0  0  0  0  0  0  0  0
  -11.1355    7.0075   73.0009 H   0  0  0  0  0  0  0  0  0  0  0  0
  -11.0101    8.6862   73.5765 H   0  0  0  0  0  0  0  0  0  0  0  0
   -9.3349    8.7667   71.8816 H   0  0  0  0  0  0  0  0  0  0  0  0
  -10.1962    7.5915   70.8534 H   0  0  0  0  0  0  0  0  0  0  0  0
  -13.0936    9.7536   70.5032 H   0  0  0  0  0  0  0  0  0  0  0  0
  -12.4215   10.5461   71.9501 H   0  0  0  0  0  0  0  0  0  0  0  0
  -12.9864    7.5550   71.5118 H   0  0  0  0  0  0  0  0  0  0  0  0
  -11.9796   15.4438   68.4501 H   0  0  0  0  0  0  0  0  0  0  0  0
  -10.4665   14.6292   68.7635 H   0  0  0  0  0  0  0  0  0  0  0  0
  -13.1521   13.2333   69.2586 H   0  0  0  0  0  0  0  0  0  0  0  0
  -10.7473   12.5810   70.7774 H   0  0  0  0  0  0  0  0  0  0  0  0
  -14.3970    7.9341   73.1350 H   0  0  0  0  0  0  0  0  0  0  0  0
  -13.9854    9.5401   73.1942 H   0  0  0  0  0  0  0  0  0  0  0  0
  -13.1844    8.4427   74.1465 H   0  0  0  0  0  0  0  0  0  0  0  0
  1  3  2  0  0  0  0
  1  4  1  0  0  0  0
  2  5  2  0  0  0  0
  2  6  1  0  0  0  0
  3  7  1  0  0  0  0
  4  8  2  0  0  0  0
  5  9  1  0  0  0  0
  6 10  2  0  0  0  0
  7 11  2  0  0  0  0
  8 11  1  0  0  0  0
  9 12  2  0  0  0  0
 10 12  1  0  0  0  0
 11 19  1  0  0  0  0
 12 20  1  0  0  0  0
 13 14  1  0  0  0  0
 13 21  1  0  0  0  0
 13 24  2  0  0  0  0
 14 22  1  0  0  0  0
 14 25  2  0  0  0  0
 15 16  1  0  0  0  0
 15 18  1  0  0  0  0
 16 21  1  0  0  0  0
 17 18  1  0  0  0  0
 17 21  1  0  0  0  0
 18 23  1  0  0  0  0
 19 20  1  6  0  0  0
 20 22  1  0  0  0  0
  1 26  1  0  0  0  0
  2 27  1  0  0  0  0
  3 28  1  0  0  0  0
  4 29  1  0  0  0  0
  5 30  1  0  0  0  0
  6 31  1  0  0  0  0
  7 32  1  0  0  0  0
  8 33  1  0  0  0  0
  9 34  1  0  0  0  0
 10 35  1  0  0  0  0
 15 36  1  0  0  0  0
 15 37  1  0  0  0  0
 16 38  1  0  0  0  0
 16 39  1  0  0  0  0
 17 40  1  0  0  0  0
 17 41  1  0  0  0  0
 18 42  1  6  0  0  0
 19 43  1  0  0  0  0
 19 44  1  0  0  0  0
 20 45  1  0  0  0  0
 22 46  1  0  0  0  0
 23 47  1  0  0  0  0
 23 48  1  0  0  0  0
 23 49  1  0  0  0  0
M  CHG  1  23   1
M  END
>  <idnumber>
Z2364957987

>  <Chemgauss4>
-14.0796976089478

>  <Hetero-Bemis-Murcko>
c1ccc(cc1)CC(c2ccccc2)NCCN3CCCC3

>  <Hetero-Bemis-Murcko>
c1ccc(cc1)CC(c2ccccc2)NCCN3CCCC3

>  <MW>
337.423

>  <HBD>
2

>  <HBA>
3

>  <RotBonds>
4

>  <XLogP>
1.67199993133545

>  <sLogP>
1.646

>  <TPSA>
77.0499954223633

>  <FSP3>
0.3

>  <QED>
0.833

$$$$
Z2364958052
  -OEChem-04242015583D

 49 51  0     1  0  0  0  0  0999 V2000
  -11.8359   12.5775   64.6650 C   0  0  0  0  0  0  0  0  0  0  0  0
  -13.1065   16.0077   73.1376 C   0  0  0  0  0  0  0  0  0  0  0  0
  -10.7537   12.2857   65.4952 C   0  0  0  0  0  0  0  0  0  0  0  0
  -12.8163   13.4757   65.0868 C   0  0  0  0  0  0  0  0  0  0  0  0
  -13.9157   14.9210   72.8060 C   0  0  0  0  0  0  0  0  0  0  0  0
  -12.0077   16.3281   72.3402 C   0  0  0  0  0  0  0  0  0  0  0  0
  -10.6520   12.8918   66.7474 C   0  0  0  0  0  0  0  0  0  0  0  0
  -12.7146   14.0818   66.3389 C   0  0  0  0  0  0  0  0  0  0  0  0
  -13.6261   14.1546   71.6771 C   0  0  0  0  0  0  0  0  0  0  0  0
  -11.7181   15.5616   71.2113 C   0  0  0  0  0  0  0  0  0  0  0  0
  -11.6325   13.7899   67.1693 C   0  0  0  0  0  0  0  0  0  0  0  0
  -12.5273   14.4749   70.8798 C   0  0  0  0  0  0  0  0  0  0  0  0
  -10.5177   10.2962   69.8508 C   0  0  0  0  0  0  0  0  0  0  0  0
  -11.4550   11.3101   69.3077 C   0  0  0  0  0  0  0  0  0  0  0  0
  -11.2393    8.0563   72.7080 C   0  0  0  0  0  0  0  0  0  0  0  0
  -10.3206    8.4280   71.5498 C   0  0  0  0  0  0  0  0  0  0  0  0
  -12.3931    9.6385   71.3360 C   0  0  0  0  0  0  0  0  0  0  0  0
  -12.6180    8.3721   72.1426 C   0  0  2  0  0  0  0  0  0  0  0  0
  -11.5230   14.4470   68.5263 C   0  0  0  0  0  0  0  0  0  0  0  0
  -12.2111   13.6405   69.6503 C   0  0  1  0  0  0  0  0  0  0  0  0
  -11.0295    9.4937   70.8448 N   0  0  0  0  0  0  0  0  0  0  0  0
  -11.3925   12.5008   69.9967 N   0  0  0  0  0  0  0  0  0  0  0  0
  -13.6026    8.5843   73.2162 N   0  3  0  0  0  0  0  0  0  0  0  0
   -9.3931   10.2769   69.3711 O   0  0  0  0  0  0  0  0  0  0  0  0
  -12.1670   11.0409   68.3525 O   0  0  0  0  0  0  0  0  0  0  0  0
  -11.9142   12.1065   63.6894 H   0  0  0  0  0  0  0  0  0  0  0  0
  -13.3330   16.6052   74.0158 H   0  0  0  0  0  0  0  0  0  0  0  0
   -9.9897   11.5872   65.1665 H   0  0  0  0  0  0  0  0  0  0  0  0
  -13.6583   13.7040   64.4401 H   0  0  0  0  0  0  0  0  0  0  0  0
  -14.7720   14.6721   73.4261 H   0  0  0  0  0  0  0  0  0  0  0  0
  -11.3782   17.1747   72.5974 H   0  0  0  0  0  0  0  0  0  0  0  0
   -9.8055   12.6582   67.3877 H   0  0  0  0  0  0  0  0  0  0  0  0
  -13.4832   14.7801   66.6592 H   0  0  0  0  0  0  0  0  0  0  0  0
  -14.2620   13.3096   71.4266 H   0  0  0  0  0  0  0  0  0  0  0  0
  -10.8599   15.8186   70.5961 H   0  0  0  0  0  0  0  0  0  0  0  0
  -11.1355    7.0075   73.0009 H   0  0  0  0  0  0  0  0  0  0  0  0
  -11.0101    8.6862   73.5765 H   0  0  0  0  0  0  0  0  0  0  0  0
   -9.3349    8.7667   71.8816 H   0  0  0  0  0  0  0  0  0  0  0  0
  -10.1962    7.5915   70.8534 H   0  0  0  0  0  0  0  0  0  0  0  0
  -13.0936    9.7536   70.5032 H   0  0  0  0  0  0  0  0  0  0  0  0
  -12.4215   10.5461   71.9501 H   0  0  0  0  0  0  0  0  0  0  0  0
  -12.9864    7.5550   71.5118 H   0  0  0  0  0  0  0  0  0  0  0  0
  -11.9796   15.4438   68.4501 H   0  0  0  0  0  0  0  0  0  0  0  0
  -10.4665   14.6292   68.7635 H   0  0  0  0  0  0  0  0  0  0  0  0
  -13.1521   13.2333   69.2586 H   0  0  0  0  0  0  0  0  0  0  0  0
  -10.7473   12.5810   70.7774 H   0  0  0  0  0  0  0  0  0  0  0  0
  -14.3970    7.9341   73.1350 H   0  0  0  0  0  0  0  0  0  0  0  0
  -13.9854    9.5401   73.1942 H   0  0  0  0  0  0  0  0  0  0  0  0
  -13.1844    8.4427   74.1465 H   0  0  0  0  0  0  0  0  0  0  0  0
  1  3  2  0  0  0  0
  1  4  1  0  0  0  0
  2  5  2  0  0  0  0
  2  6  1  0  0  0  0
  3  7  1  0  0  0  0
  4  8  2  0  0  0  0
  5  9  1  0  0  0  0
  6 10  2  0  0  0  0
  7 11  2  0  0  0  0
  8 11  1  0  0  0  0
  9 12  2  0  0  0  0
 10 12  1  0  0  0  0
 11 19  1  0  0  0  0
 12 20  1  0  0  0  0
 13 14  1  0  0  0  0
 13 21  1  0  0  0  0
 13 24  2  0  0  0  0
 14 22  1  0  0  0  0
 14 25  2  0  0  0  0
 15 16  1  0  0  0  0
 15 18  1  0  0  0  0
 16 21  1  0  0  0  0
 17 18  1  0  0  0  0
 17 21  1  0  0  0  0
 18 23  1  1  0  0  0
 19 20  1  6  0  0  0
 20 22  1  0  0  0  0
  1 26  1  0  0  0  0
  2 27  1  0  0  0  0
  3 28  1  0  0  0  0
  4 29  1  0  0  0  0
  5 30  1  0  0  0  0
  6 31  1  0  0  0  0
  7 32  1  0  0  0  0
  8 33  1  0  0  0  0
  9 34  1  0  0  0  0
 10 35  1  0  0  0  0
 15 36  1  0  0  0  0
 15 37  1  0  0  0  0
 16 38  1  0  0  0  0
 16 39  1  0  0  0  0
 17 40  1  0  0  0  0
 17 41  1  0  0  0  0
 18 42  1  0  0  0  0
 19 43  1  0  0  0  0
 19 44  1  0  0  0  0
 20 45  1  0  0  0  0
 22 46  1  0  0  0  0
 23 47  1  0  0  0  0
 23 48  1  0  0  0  0
 23 49  1  0  0  0  0
M  CHG  1  23   1
M  END
>  <idnumber>
Z2364958052

>  <Chemgauss4>
-14.0796976089478

>  <Hetero-Bemis-Murcko>
c1ccc(cc1)CC(c2ccccc2)NCCN3CCCC3

>  <Hetero-Bemis-Murcko>
c1ccc(cc1)CC(c2ccccc2)NCCN3CCCC3

>  <MW>
337.423

>  <HBD>
2

>  <HBA>
3

>  <RotBonds>
4

>  <XLogP>
1.67199993133545

>  <sLogP>
1.646

>  <TPSA>
77.0499954223633

>  <FSP3>
0.3

>  <QED>
0.833

$$$$
Z1738108262
  -OEChem-04242015583D

 58 60  0     1  0  0  0  0  0999 V2000
  -13.6105   14.6576   73.7608 C   0  0  0  0  0  0  0  0  0  0  0  0
  -10.0498   14.6549   65.1401 C   0  0  0  0  0  0  0  0  0  0  0  0
  -12.4789   15.4660   73.6540 C   0  0  0  0  0  0  0  0  0  0  0  0
  -14.1390   14.0440   72.6251 C   0  0  0  0  0  0  0  0  0  0  0  0
  -11.3770   15.0364   65.3362 C   0  0  0  0  0  0  0  0  0  0  0  0
   -9.3280   14.0788   66.1855 C   0  0  0  0  0  0  0  0  0  0  0  0
  -11.8757   15.6609   72.4114 C   0  0  0  0  0  0  0  0  0  0  0  0
  -13.5359   14.2389   71.3825 C   0  0  0  0  0  0  0  0  0  0  0  0
  -11.9825   14.8419   66.5777 C   0  0  0  0  0  0  0  0  0  0  0  0
   -9.9334   13.8843   67.4270 C   0  0  0  0  0  0  0  0  0  0  0  0
  -12.4043   15.0473   71.2757 C   0  0  0  0  0  0  0  0  0  0  0  0
  -11.2606   14.2658   67.6231 C   0  0  0  0  0  0  0  0  0  0  0  0
  -12.1569    7.9981   71.4040 C   0  0  0  0  0  0  0  0  0  0  0  0
  -11.9579   11.6042   69.3428 C   0  0  0  0  0  0  0  0  0  0  0  0
  -10.2570    6.6833   68.3524 C   0  0  0  0  0  0  0  0  0  0  0  0
  -10.4367    7.9072   67.4660 C   0  0  0  0  0  0  0  0  0  0  0  0
  -11.2215    6.7147   69.5303 C   0  0  0  0  0  0  0  0  0  0  0  0
  -10.3051    9.1958   68.2612 C   0  0  0  0  0  0  0  0  0  0  0  0
  -11.1122    8.0107   70.3339 C   0  0  1  0  0  0  0  0  0  0  0  0
  -11.7513   15.2583   69.9286 C   0  0  0  0  0  0  0  0  0  0  0  0
  -11.2580   10.5233   70.1278 C   0  0  0  0  0  0  0  0  0  0  0  0
  -11.9193   14.0539   68.9756 C   0  0  2  0  0  0  0  0  0  0  0  0
  -11.7371    8.1082   72.6571 N   0  0  0  0  0  0  0  0  0  0  0  0
  -11.4206   12.8552   69.6066 N   0  0  0  0  0  0  0  0  0  0  0  0
  -13.4358    7.8803   71.0744 N   0  3  0  0  0  0  0  0  0  0  0  0
  -11.2991    9.1995   69.4035 N   0  3  1  0  0  0  0  0  0  0  0  0
  -12.8862   11.3823   68.5699 O   0  0  0  0  0  0  0  0  0  0  0  0
  -14.3738    7.8721   72.0840 O   0  0  0  0  0  0  0  0  0  0  0  0
  -14.0792   14.5049   74.7286 H   0  0  0  0  0  0  0  0  0  0  0  0
   -9.5790   14.8052   64.1730 H   0  0  0  0  0  0  0  0  0  0  0  0
  -12.0665   15.9430   74.5383 H   0  0  0  0  0  0  0  0  0  0  0  0
  -15.0194   13.4137   72.7080 H   0  0  0  0  0  0  0  0  0  0  0  0
  -11.9396   15.4840   64.5221 H   0  0  0  0  0  0  0  0  0  0  0  0
   -8.2949   13.7806   66.0329 H   0  0  0  0  0  0  0  0  0  0  0  0
  -10.9944   16.2926   72.3376 H   0  0  0  0  0  0  0  0  0  0  0  0
  -13.9547   13.7569   70.5031 H   0  0  0  0  0  0  0  0  0  0  0  0
  -13.0170   15.1424   66.7214 H   0  0  0  0  0  0  0  0  0  0  0  0
   -9.3632   13.4348   68.2357 H   0  0  0  0  0  0  0  0  0  0  0  0
  -10.4176    5.7724   67.7650 H   0  0  0  0  0  0  0  0  0  0  0  0
   -9.2253    6.6470   68.7234 H   0  0  0  0  0  0  0  0  0  0  0  0
   -9.6880    7.8924   66.6661 H   0  0  0  0  0  0  0  0  0  0  0  0
  -11.4197    7.8716   66.9801 H   0  0  0  0  0  0  0  0  0  0  0  0
  -12.2492    6.5857   69.1654 H   0  0  0  0  0  0  0  0  0  0  0  0
  -11.0199    5.8566   70.1837 H   0  0  0  0  0  0  0  0  0  0  0  0
   -9.3041    9.3084   68.6927 H   0  0  0  0  0  0  0  0  0  0  0  0
  -10.5300   10.0607   67.6286 H   0  0  0  0  0  0  0  0  0  0  0  0
  -10.1381    8.1129   70.7869 H   0  0  0  0  0  0  0  0  0  0  0  0
  -10.6830   15.4483   70.1039 H   0  0  0  0  0  0  0  0  0  0  0  0
  -12.1384   16.1785   69.4714 H   0  0  0  0  0  0  0  0  0  0  0  0
  -11.7478   10.3740   71.0941 H   0  0  0  0  0  0  0  0  0  0  0  0
  -10.2042   10.7782   70.2702 H   0  0  0  0  0  0  0  0  0  0  0  0
  -12.9923   13.8884   68.8143 H   0  0  0  0  0  0  0  0  0  0  0  0
  -10.7476    8.1959   72.8605 H   0  0  0  0  0  0  0  0  0  0  0  0
  -12.3888    8.1071   73.4339 H   0  0  0  0  0  0  0  0  0  0  0  0
  -10.6664   12.9454   70.2814 H   0  0  0  0  0  0  0  0  0  0  0  0
  -13.7673    7.7952   70.1210 H   0  0  0  0  0  0  0  0  0  0  0  0
  -12.2374    9.1223   68.9886 H   0  0  0  0  0  0  0  0  0  0  0  0
  -15.2001    7.7779   71.5806 H   0  0  0  0  0  0  0  0  0  0  0  0
  1  3  2  0  0  0  0
  1  4  1  0  0  0  0
  2  5  2  0  0  0  0
  2  6  1  0  0  0  0
  3  7  1  0  0  0  0
  4  8  2  0  0  0  0
  5  9  1  0  0  0  0
  6 10  2  0  0  0  0
  7 11  2  0  0  0  0
  8 11  1  0  0  0  0
  9 12  2  0  0  0  0
 10 12  1  0  0  0  0
 11 20  1  0  0  0  0
 12 22  1  0  0  0  0
 13 19  1  6  0  0  0
 13 23  1  0  0  0  0
 13 25  2  0  0  0  0
 14 21  1  0  0  0  0
 14 24  1  0  0  0  0
 14 27  2  0  0  0  0
 15 16  1  0  0  0  0
 15 17  1  0  0  0  0
 16 18  1  0  0  0  0
 17 19  1  0  0  0  0
 18 26  1  0  0  0  0
 19 26  1  0  0  0  0
 20 22  1  1  0  0  0
 21 26  1  6  0  0  0
 22 24  1  0  0  0  0
 25 28  1  0  0  0  0
  1 29  1  0  0  0  0
  2 30  1  0  0  0  0
  3 31  1  0  0  0  0
  4 32  1  0  0  0  0
  5 33  1  0  0  0  0
  6 34  1  0  0  0  0
  7 35  1  0  0  0  0
  8 36  1  0  0  0  0
  9 37  1  0  0  0  0
 10 38  1  0  0  0  0
 15 39  1  0  0  0  0
 15 40  1  0  0  0  0
 16 41  1  0  0  0  0
 16 42  1  0  0  0  0
 17 43  1  0  0  0  0
 17 44  1  0  0  0  0
 18 45  1  0  0  0  0
 18 46  1  0  0  0  0
 19 47  1  0  0  0  0
 20 48  1  0  0  0  0
 20 49  1  0  0  0  0
 21 50  1  0  0  0  0
 21 51  1  0  0  0  0
 22 52  1  0  0  0  0
 23 53  1  0  0  0  0
 23 54  1  0  0  0  0
 24 55  1  0  0  0  0
 25 56  1  0  0  0  0
 26 57  1  0  0  0  0
 28 58  1  0  0  0  0
M  CHG  2  25   1  26   1
M  END
>  <idnumber>
Z1738108262

>  <Chemgauss4>
-14.0772266387939

>  <Hetero-Bemis-Murcko>
c1ccc(cc1)CC(c2ccccc2)NCC[NH+]3CCCCC3

>  <Hetero-Bemis-Murcko>
c1ccc(cc1)CC(c2ccccc2)NCC[NH+]3CCCCC3

>  <MW>
380.492

>  <HBD>
3

>  <HBA>
4

>  <RotBonds>
7

>  <XLogP>
3.25999999046326

>  <sLogP>
2.688

>  <TPSA>
93.7600021362305

>  <FSP3>
0.364

>  <QED>
0.298

$$$$
Z2445658961
  -OEChem-04242015583D

 52 55  0     1  0  0  0  0  0999 V2000
  -13.1093   16.1283   72.9812 C   0  0  0  0  0  0  0  0  0  0  0  0
  -13.8761   15.0092   72.6568 C   0  0  0  0  0  0  0  0  0  0  0  0
  -12.0233   16.4852   72.1819 C   0  0  0  0  0  0  0  0  0  0  0  0
  -12.6861   13.5489   64.9742 C   0  0  0  0  0  0  0  0  0  0  0  0
  -11.6551   12.6960   64.5962 C   0  0  0  0  0  0  0  0  0  0  0  0
  -13.5568   14.2469   71.5332 C   0  0  0  0  0  0  0  0  0  0  0  0
  -11.7041   15.7229   71.0582 C   0  0  0  0  0  0  0  0  0  0  0  0
  -12.6396   14.1810   66.2117 C   0  0  0  0  0  0  0  0  0  0  0  0
  -10.6084   12.5103   65.4849 C   0  0  0  0  0  0  0  0  0  0  0  0
  -12.4708   14.6038   70.7338 C   0  0  0  0  0  0  0  0  0  0  0  0
  -11.5489   13.9286   67.0281 C   0  0  0  0  0  0  0  0  0  0  0  0
  -10.3023   10.4987   69.7331 C   0  0  0  0  0  0  0  0  0  0  0  0
  -11.2771   11.4717   69.1834 C   0  0  0  0  0  0  0  0  0  0  0  0
  -10.7844    6.6503   72.8882 C   0  0  0  0  0  0  0  0  0  0  0  0
  -10.6891    7.7993   73.8462 C   0  0  0  0  0  0  0  0  0  0  0  0
  -12.1645    9.7744   71.1994 C   0  0  0  0  0  0  0  0  0  0  0  0
  -10.0125    8.7151   71.4983 C   0  0  0  0  0  0  0  0  0  0  0  0
  -12.4074    8.4602   71.9352 C   0  0  1  0  0  0  0  0  0  0  0  0
  -11.0278    8.0563   72.3938 C   0  0  0  0  0  0  0  0  0  0  0  0
  -11.4653   14.5985   68.3808 C   0  0  0  0  0  0  0  0  0  0  0  0
  -12.1224   13.7738   69.5100 C   0  0  1  0  0  0  0  0  0  0  0  0
  -10.5284   13.1067   66.6954 N   0  0  0  0  0  0  0  0  0  0  0  0
  -10.7904    9.6817   70.7285 N   0  0  0  0  0  0  0  0  0  0  0  0
  -11.2609   12.6687   69.8643 N   0  0  0  0  0  0  0  0  0  0  0  0
  -13.4578    8.6642   72.9614 N   0  3  0  0  0  0  0  0  0  0  0  0
   -9.1779   10.5191   69.2539 O   0  0  0  0  0  0  0  0  0  0  0  0
  -11.9781   11.1692   68.2298 O   0  0  0  0  0  0  0  0  0  0  0  0
  -13.3589   16.7226   73.8554 H   0  0  0  0  0  0  0  0  0  0  0  0
  -14.7224   14.7318   73.2785 H   0  0  0  0  0  0  0  0  0  0  0  0
  -11.4268   17.3571   72.4335 H   0  0  0  0  0  0  0  0  0  0  0  0
  -13.5242   13.7205   64.3054 H   0  0  0  0  0  0  0  0  0  0  0  0
  -11.6703   12.1926   63.6364 H   0  0  0  0  0  0  0  0  0  0  0  0
  -14.1598   13.3765   71.2882 H   0  0  0  0  0  0  0  0  0  0  0  0
  -10.8561   16.0084   70.4413 H   0  0  0  0  0  0  0  0  0  0  0  0
  -13.4376   14.8487   66.5184 H   0  0  0  0  0  0  0  0  0  0  0  0
   -9.7796   11.8550   65.2376 H   0  0  0  0  0  0  0  0  0  0  0  0
   -9.8634    6.1552   72.6044 H   0  0  0  0  0  0  0  0  0  0  0  0
  -11.6332    5.9841   72.9870 H   0  0  0  0  0  0  0  0  0  0  0  0
  -11.4613    7.8858   74.5999 H   0  0  0  0  0  0  0  0  0  0  0  0
   -9.7026    8.0732   74.2021 H   0  0  0  0  0  0  0  0  0  0  0  0
  -12.8558    9.9415   70.3675 H   0  0  0  0  0  0  0  0  0  0  0  0
  -12.2064   10.6414   71.8700 H   0  0  0  0  0  0  0  0  0  0  0  0
   -9.2395    9.2512   72.0581 H   0  0  0  0  0  0  0  0  0  0  0  0
   -9.5425    8.0076   70.8075 H   0  0  0  0  0  0  0  0  0  0  0  0
  -12.7978    7.7079   71.2395 H   0  0  0  0  0  0  0  0  0  0  0  0
  -11.9598   15.5766   68.2978 H   0  0  0  0  0  0  0  0  0  0  0  0
  -10.4166   14.8227   68.6169 H   0  0  0  0  0  0  0  0  0  0  0  0
  -13.0469   13.3282   69.1210 H   0  0  0  0  0  0  0  0  0  0  0  0
  -10.6196   12.7790   70.6445 H   0  0  0  0  0  0  0  0  0  0  0  0
  -13.7507    9.6467   72.9977 H   0  0  0  0  0  0  0  0  0  0  0  0
  -13.1169    8.4021   73.8930 H   0  0  0  0  0  0  0  0  0  0  0  0
  -14.2868    8.0952   72.7572 H   0  0  0  0  0  0  0  0  0  0  0  0
  1  2  2  0  0  0  0
  1  3  1  0  0  0  0
  2  6  1  0  0  0  0
  3  7  2  0  0  0  0
  4  5  2  0  0  0  0
  4  8  1  0  0  0  0
  5  9  1  0  0  0  0
  6 10  2  0  0  0  0
  7 10  1  0  0  0  0
  8 11  2  0  0  0  0
  9 22  2  0  0  0  0
 10 21  1  0  0  0  0
 11 20  1  0  0  0  0
 11 22  1  0  0  0  0
 12 13  1  0  0  0  0
 12 23  1  0  0  0  0
 12 26  2  0  0  0  0
 13 24  1  0  0  0  0
 13 27  2  0  0  0  0
 14 15  1  0  0  0  0
 14 19  1  0  0  0  0
 15 19  1  0  0  0  0
 16 18  1  0  0  0  0
 16 23  1  0  0  0  0
 17 19  1  0  0  0  0
 17 23  1  0  0  0  0
 18 19  1  0  0  0  0
 18 25  1  6  0  0  0
 20 21  1  6  0  0  0
 21 24  1  0  0  0  0
  1 28  1  0  0  0  0
  2 29  1  0  0  0  0
  3 30  1  0  0  0  0
  4 31  1  0  0  0  0
  5 32  1  0  0  0  0
  6 33  1  0  0  0  0
  7 34  1  0  0  0  0
  8 35  1  0  0  0  0
  9 36  1  0  0  0  0
 14 37  1  0  0  0  0
 14 38  1  0  0  0  0
 15 39  1  0  0  0  0
 15 40  1  0  0  0  0
 16 41  1  0  0  0  0
 16 42  1  0  0  0  0
 17 43  1  0  0  0  0
 17 44  1  0  0  0  0
 18 45  1  0  0  0  0
 20 46  1  0  0  0  0
 20 47  1  0  0  0  0
 21 48  1  0  0  0  0
 24 49  1  0  0  0  0
 25 50  1  0  0  0  0
 25 51  1  0  0  0  0
 25 52  1  0  0  0  0
M  CHG  1  25   1
M  END
>  <idnumber>
Z2445658961

>  <Chemgauss4>
-14.0704202651978

>  <Hetero-Bemis-Murcko>
c1ccc(cc1)C(Cc2ccccn2)NCCN3CCC4(C3)CC4

>  <Hetero-Bemis-Murcko>
c1ccc(cc1)C(Cc2ccccn2)NCCN3CCC4(C3)CC4

>  <MW>
364.449

>  <HBD>
2

>  <HBA>
4

>  <RotBonds>
4

>  <XLogP>
1.20600008964539

>  <sLogP>
1.431

>  <TPSA>
89.9399948120117

>  <FSP3>
0.381

>  <QED>
0.804

$$$$
Z1522119357
  -OEChem-04242015583D

 52 54  0     1  0  0  0  0  0999 V2000
  -13.5152   15.7970   73.3945 C   0  0  0  0  0  0  0  0  0  0  0  0
  -12.2824   16.4494   73.4064 C   0  0  0  0  0  0  0  0  0  0  0  0
  -13.9669   15.1806   72.2275 C   0  0  0  0  0  0  0  0  0  0  0  0
  -11.5013   16.4856   72.2513 C   0  0  0  0  0  0  0  0  0  0  0  0
  -13.1858   15.2168   71.0724 C   0  0  0  0  0  0  0  0  0  0  0  0
  -11.8696   13.7448   65.8829 C   0  0  0  0  0  0  0  0  0  0  0  0
  -10.2201   12.1461   65.1580 C   0  0  0  0  0  0  0  0  0  0  0  0
  -11.9529   15.8693   71.0843 C   0  0  0  0  0  0  0  0  0  0  0  0
  -10.6643   13.7796   66.5523 C   0  0  0  0  0  0  0  0  0  0  0  0
  -11.6686   12.2867   69.3539 C   0  0  0  0  0  0  0  0  0  0  0  0
  -11.2190    7.5069   70.5959 C   0  0  0  0  0  0  0  0  0  0  0  0
  -10.6836    8.9357   70.5940 C   0  0  0  0  0  0  0  0  0  0  0  0
  -12.4823    7.3772   71.4337 C   0  0  0  0  0  0  0  0  0  0  0  0
  -13.0249    9.7914   71.0038 C   0  0  0  0  0  0  0  0  0  0  0  0
  -11.7620    9.9274   70.1581 C   0  0  1  0  0  0  0  0  0  0  0  0
  -14.8262    8.1950   71.6610 C   0  0  0  0  0  0  0  0  0  0  0  0
  -11.1087   15.9082   69.8346 C   0  0  0  0  0  0  0  0  0  0  0  0
  -10.3091   14.7192   67.6780 C   0  0  0  0  0  0  0  0  0  0  0  0
  -11.2660   14.7001   68.8877 C   0  0  1  0  0  0  0  0  0  0  0  0
   -9.7173   12.8633   66.1383 N   0  0  0  0  0  0  0  0  0  0  0  0
  -11.2574   11.2780   70.2213 N   0  0  0  0  0  0  0  0  0  0  0  0
  -11.0249   13.4889   69.6360 N   0  0  0  0  0  0  0  0  0  0  0  0
  -13.5154    8.3622   70.9421 N   0  3  2  0  0  0  0  0  0  0  0  0
  -12.4944   12.1371   68.4542 O   0  0  0  0  0  0  0  0  0  0  0  0
  -11.8261   12.5203   64.6830 S   0  0  0  0  0  0  0  0  0  0  0  0
  -14.1226   15.7678   74.2944 H   0  0  0  0  0  0  0  0  0  0  0  0
  -11.9300   16.9285   74.3152 H   0  0  0  0  0  0  0  0  0  0  0  0
  -14.9261   14.6716   72.2182 H   0  0  0  0  0  0  0  0  0  0  0  0
  -10.5421   16.9964   72.2698 H   0  0  0  0  0  0  0  0  0  0  0  0
  -13.5458   14.7339   70.1678 H   0  0  0  0  0  0  0  0  0  0  0  0
  -12.7472   14.3583   66.0315 H   0  0  0  0  0  0  0  0  0  0  0  0
   -9.6572   11.3608   64.6723 H   0  0  0  0  0  0  0  0  0  0  0  0
  -11.4262    7.1912   69.5657 H   0  0  0  0  0  0  0  0  0  0  0  0
  -10.4509    6.8293   70.9856 H   0  0  0  0  0  0  0  0  0  0  0  0
  -10.3285    9.1859   71.6023 H   0  0  0  0  0  0  0  0  0  0  0  0
   -9.8181    8.9963   69.9234 H   0  0  0  0  0  0  0  0  0  0  0  0
  -12.9096    6.3740   71.3345 H   0  0  0  0  0  0  0  0  0  0  0  0
  -12.2937    7.5928   72.4913 H   0  0  0  0  0  0  0  0  0  0  0  0
  -12.8464   10.0310   72.0587 H   0  0  0  0  0  0  0  0  0  0  0  0
  -13.8291   10.4249   70.6136 H   0  0  0  0  0  0  0  0  0  0  0  0
  -12.0104    9.7499   69.1047 H   0  0  0  0  0  0  0  0  0  0  0  0
  -14.6596    8.4203   72.7159 H   0  0  0  0  0  0  0  0  0  0  0  0
  -15.5411    8.8915   71.2188 H   0  0  0  0  0  0  0  0  0  0  0  0
  -15.1511    7.1614   71.5271 H   0  0  0  0  0  0  0  0  0  0  0  0
  -10.0488   16.0276   70.0971 H   0  0  0  0  0  0  0  0  0  0  0  0
  -11.3755   16.8298   69.2982 H   0  0  0  0  0  0  0  0  0  0  0  0
   -9.2847   14.5255   68.0240 H   0  0  0  0  0  0  0  0  0  0  0  0
  -10.2795   15.7317   67.2505 H   0  0  0  0  0  0  0  0  0  0  0  0
  -12.3046   14.6214   68.5487 H   0  0  0  0  0  0  0  0  0  0  0  0
  -10.5691   11.5037   70.9329 H   0  0  0  0  0  0  0  0  0  0  0  0
  -10.3917   13.5302   70.4285 H   0  0  0  0  0  0  0  0  0  0  0  0
  -13.6977    8.1450   69.9527 H   0  0  0  0  0  0  0  0  0  0  0  0
  1  2  2  0  0  0  0
  1  3  1  0  0  0  0
  2  4  1  0  0  0  0
  3  5  2  0  0  0  0
  4  8  2  0  0  0  0
  5  8  1  0  0  0  0
  6  9  2  0  0  0  0
  6 25  1  0  0  0  0
  7 20  2  0  0  0  0
  7 25  1  0  0  0  0
  8 17  1  0  0  0  0
  9 18  1  0  0  0  0
  9 20  1  0  0  0  0
 10 21  1  0  0  0  0
 10 22  1  0  0  0  0
 10 24  2  0  0  0  0
 11 12  1  0  0  0  0
 11 13  1  0  0  0  0
 12 15  1  0  0  0  0
 13 23  1  0  0  0  0
 14 15  1  0  0  0  0
 14 23  1  0  0  0  0
 15 21  1  6  0  0  0
 16 23  1  1  0  0  0
 17 19  1  1  0  0  0
 18 19  1  0  0  0  0
 19 22  1  0  0  0  0
  1 26  1  0  0  0  0
  2 27  1  0  0  0  0
  3 28  1  0  0  0  0
  4 29  1  0  0  0  0
  5 30  1  0  0  0  0
  6 31  1  0  0  0  0
  7 32  1  0  0  0  0
 11 33  1  0  0  0  0
 11 34  1  0  0  0  0
 12 35  1  0  0  0  0
 12 36  1  0  0  0  0
 13 37  1  0  0  0  0
 13 38  1  0  0  0  0
 14 39  1  0  0  0  0
 14 40  1  0  0  0  0
 15 41  1  0  0  0  0
 16 42  1  0  0  0  0
 16 43  1  0  0  0  0
 16 44  1  0  0  0  0
 17 45  1  0  0  0  0
 17 46  1  0  0  0  0
 18 47  1  0  0  0  0
 18 48  1  0  0  0  0
 19 49  1  0  0  0  0
 21 50  1  0  0  0  0
 22 51  1  0  0  0  0
 23 52  1  0  0  0  0
M  CHG  1  23   1
M  END
>  <idnumber>
Z1522119357

>  <Chemgauss4>
-14.0702953338623

>  <Hetero-Bemis-Murcko>
c1ccc(cc1)CC(Cc2cscn2)NCNC3CCC[NH2+]C3

>  <Hetero-Bemis-Murcko>
c1ccc(cc1)CC(Cc2cscn2)NCNC3CCC[NH2+]C3

>  <MW>
358.511

>  <HBD>
2

>  <HBA>
4

>  <RotBonds>
6

>  <XLogP>
2.70199990272522

>  <sLogP>
2.69

>  <TPSA>
58.4599990844727

>  <FSP3>
0.474

>  <QED>
0.835

$$$$
Z2360891968
  -OEChem-04242015583D

 61 62  0     1  0  0  0  0  0999 V2000
  -14.1479   14.4224   72.8974 C   0  0  0  0  0  0  0  0  0  0  0  0
  -13.6589   15.7156   73.0822 C   0  0  0  0  0  0  0  0  0  0  0  0
  -13.5703   13.5886   71.9398 C   0  0  0  0  0  0  0  0  0  0  0  0
  -12.5925   16.1751   72.3094 C   0  0  0  0  0  0  0  0  0  0  0  0
  -12.5039   14.0481   71.1670 C   0  0  0  0  0  0  0  0  0  0  0  0
  -12.0150   15.3413   71.3517 C   0  0  0  0  0  0  0  0  0  0  0  0
  -11.4584   14.7616   67.4549 C   0  0  0  0  0  0  0  0  0  0  0  0
  -11.4035    7.7796   71.5295 C   0  0  0  0  0  0  0  0  0  0  0  0
  -10.6837    7.8358   69.1084 C   0  0  0  0  0  0  0  0  0  0  0  0
  -11.2103    9.9781   70.3033 C   0  0  0  0  0  0  0  0  0  0  0  0
  -11.4145    7.0358   70.1874 C   0  0  1  0  0  0  0  0  0  0  0  0
  -11.9314    9.2167   71.4183 C   0  0  1  0  0  0  0  0  0  0  0  0
  -10.7824    5.6522   70.3379 C   0  0  0  0  0  0  0  0  0  0  0  0
  -13.4531    9.2510   71.2472 C   0  0  0  0  0  0  0  0  0  0  0  0
  -11.0555   11.9507   66.2651 C   0  0  0  0  0  0  0  0  0  0  0  0
  -11.6203   11.1073   67.4144 C   0  0  0  0  0  0  0  0  0  0  0  0
  -12.0423   13.0080   65.7783 C   0  0  0  0  0  0  0  0  0  0  0  0
  -11.3268   16.5139   69.2201 C   0  0  0  0  0  0  0  0  0  0  0  0
  -10.6793    9.9977   67.8685 C   0  0  0  0  0  0  0  0  0  0  0  0
  -10.8586   15.8391   70.5131 C   0  0  2  0  0  0  0  0  0  0  0  0
  -12.3908   13.9475   66.8080 N   0  0  0  0  0  0  0  0  0  0  0  0
  -12.0652   15.5758   68.4079 N   0  0  0  0  0  0  0  0  0  0  0  0
  -11.2870    9.2160   69.0020 N   0  3  0  0  0  0  0  0  0  0  0  0
   -9.9017   14.7422   70.1599 N   0  3  0  0  0  0  0  0  0  0  0  0
  -10.2523   14.7594   67.2119 O   0  0  0  0  0  0  0  0  0  0  0  0
  -14.9774   14.0643   73.5002 H   0  0  0  0  0  0  0  0  0  0  0  0
  -14.1078   16.3645   73.8286 H   0  0  0  0  0  0  0  0  0  0  0  0
  -13.9500   12.5813   71.7964 H   0  0  0  0  0  0  0  0  0  0  0  0
  -12.2183   17.1842   72.4602 H   0  0  0  0  0  0  0  0  0  0  0  0
  -12.0603   13.3915   70.4232 H   0  0  0  0  0  0  0  0  0  0  0  0
  -11.9873    7.2219   72.2723 H   0  0  0  0  0  0  0  0  0  0  0  0
  -10.3741    7.8172   71.9112 H   0  0  0  0  0  0  0  0  0  0  0  0
   -9.6181    7.9586   69.3353 H   0  0  0  0  0  0  0  0  0  0  0  0
  -10.7927    7.3574   68.1289 H   0  0  0  0  0  0  0  0  0  0  0  0
  -11.6647   10.9609   70.1369 H   0  0  0  0  0  0  0  0  0  0  0  0
  -10.1478   10.1110   70.5386 H   0  0  0  0  0  0  0  0  0  0  0  0
  -12.4547    6.8875   69.8705 H   0  0  0  0  0  0  0  0  0  0  0  0
  -11.7093    9.7265   72.3650 H   0  0  0  0  0  0  0  0  0  0  0  0
   -9.7455    5.7538   70.6525 H   0  0  0  0  0  0  0  0  0  0  0  0
  -10.8173    5.1264   69.3857 H   0  0  0  0  0  0  0  0  0  0  0  0
  -11.3280    5.0778   71.0842 H   0  0  0  0  0  0  0  0  0  0  0  0
  -13.7270    8.7558   70.3188 H   0  0  0  0  0  0  0  0  0  0  0  0
  -13.7937   10.2831   71.2188 H   0  0  0  0  0  0  0  0  0  0  0  0
  -13.9255    8.7385   72.0817 H   0  0  0  0  0  0  0  0  0  0  0  0
  -10.8082   11.2917   65.4242 H   0  0  0  0  0  0  0  0  0  0  0  0
  -10.1264   12.4406   66.5785 H   0  0  0  0  0  0  0  0  0  0  0  0
  -11.8652   11.7523   68.2669 H   0  0  0  0  0  0  0  0  0  0  0  0
  -12.5599   10.6444   67.0886 H   0  0  0  0  0  0  0  0  0  0  0  0
  -12.9678   12.5512   65.4138 H   0  0  0  0  0  0  0  0  0  0  0  0
  -11.6004   13.5823   64.9578 H   0  0  0  0  0  0  0  0  0  0  0  0
  -10.4703   16.8644   68.6328 H   0  0  0  0  0  0  0  0  0  0  0  0
  -11.9698   17.3783   69.4202 H   0  0  0  0  0  0  0  0  0  0  0  0
   -9.7212   10.3881   68.2240 H   0  0  0  0  0  0  0  0  0  0  0  0
  -10.5009    9.2839   67.0588 H   0  0  0  0  0  0  0  0  0  0  0  0
  -10.2577   16.5465   71.0978 H   0  0  0  0  0  0  0  0  0  0  0  0
  -13.3696   14.0238   67.0807 H   0  0  0  0  0  0  0  0  0  0  0  0
  -13.0750   15.5426   68.5076 H   0  0  0  0  0  0  0  0  0  0  0  0
  -12.2810    9.0990   68.7653 H   0  0  0  0  0  0  0  0  0  0  0  0
   -9.2947   14.5347   70.9536 H   0  0  0  0  0  0  0  0  0  0  0  0
   -9.3215   15.0225   69.3682 H   0  0  0  0  0  0  0  0  0  0  0  0
  -10.4131   13.8956   69.9081 H   0  0  0  0  0  0  0  0  0  0  0  0
  1  2  2  0  0  0  0
  1  3  1  0  0  0  0
  2  4  1  0  0  0  0
  3  5  2  0  0  0  0
  4  6  2  0  0  0  0
  5  6  1  0  0  0  0
  6 20  1  0  0  0  0
  7 21  1  0  0  0  0
  7 22  1  0  0  0  0
  7 25  2  0  0  0  0
  8 11  1  0  0  0  0
  8 12  1  0  0  0  0
  9 11  1  0  0  0  0
  9 23  1  0  0  0  0
 10 12  1  0  0  0  0
 10 23  1  0  0  0  0
 11 13  1  6  0  0  0
 12 14  1  6  0  0  0
 15 16  1  0  0  0  0
 15 17  1  0  0  0  0
 16 19  1  0  0  0  0
 17 21  1  0  0  0  0
 18 20  1  0  0  0  0
 18 22  1  0  0  0  0
 19 23  1  0  0  0  0
 20 24  1  6  0  0  0
  1 26  1  0  0  0  0
  2 27  1  0  0  0  0
  3 28  1  0  0  0  0
  4 29  1  0  0  0  0
  5 30  1  0  0  0  0
  8 31  1  0  0  0  0
  8 32  1  0  0  0  0
  9 33  1  0  0  0  0
  9 34  1  0  0  0  0
 10 35  1  0  0  0  0
 10 36  1  0  0  0  0
 11 37  1  0  0  0  0
 12 38  1  0  0  0  0
 13 39  1  0  0  0  0
 13 40  1  0  0  0  0
 13 41  1  0  0  0  0
 14 42  1  0  0  0  0
 14 43  1  0  0  0  0
 14 44  1  0  0  0  0
 15 45  1  0  0  0  0
 15 46  1  0  0  0  0
 16 47  1  0  0  0  0
 16 48  1  0  0  0  0
 17 49  1  0  0  0  0
 17 50  1  0  0  0  0
 18 51  1  0  0  0  0
 18 52  1  0  0  0  0
 19 53  1  0  0  0  0
 19 54  1  0  0  0  0
 20 55  1  0  0  0  0
 21 56  1  0  0  0  0
 22 57  1  0  0  0  0
 23 58  1  0  0  0  0
 24 59  1  0  0  0  0
 24 60  1  0  0  0  0
 24 61  1  0  0  0  0
M  CHG  2  23   1  24   1
M  END
>  <idnumber>
Z2360891968

>  <Chemgauss4>
-14.0500211715698

>  <Hetero-Bemis-Murcko>
c1ccc(cc1)CCNCNCCCC[NH+]2CCCCC2

>  <Hetero-Bemis-Murcko>
c1ccc(cc1)CCNCNCCCC[NH+]2CCCCC2

>  <MW>
346.519

>  <HBD>
3

>  <HBA>
3

>  <RotBonds>
8

>  <XLogP>
2.76599955558777

>  <sLogP>
2.744

>  <TPSA>
73.2099990844727

>  <FSP3>
0.65

>  <QED>
0.634

$$$$
Z2366584888
  -OEChem-04242015583D

 48 50  0     1  0  0  0  0  0999 V2000
  -13.0557   16.2064   73.2000 C   0  0  0  0  0  0  0  0  0  0  0  0
  -13.8702   15.1325   72.8409 C   0  0  0  0  0  0  0  0  0  0  0  0
  -11.9528   16.5388   72.4134 C   0  0  0  0  0  0  0  0  0  0  0  0
  -12.7241   13.8522   65.1196 C   0  0  0  0  0  0  0  0  0  0  0  0
  -11.7307   12.9663   64.7177 C   0  0  0  0  0  0  0  0  0  0  0  0
  -13.5817   14.3909   71.6953 C   0  0  0  0  0  0  0  0  0  0  0  0
  -11.6643   15.7972   71.2678 C   0  0  0  0  0  0  0  0  0  0  0  0
  -12.6533   14.4442   66.3757 C   0  0  0  0  0  0  0  0  0  0  0  0
  -10.6957   12.7079   65.6019 C   0  0  0  0  0  0  0  0  0  0  0  0
  -12.4788   14.7232   70.9087 C   0  0  0  0  0  0  0  0  0  0  0  0
  -11.5771   14.1195   67.1858 C   0  0  0  0  0  0  0  0  0  0  0  0
  -10.4905   10.5580   69.7883 C   0  0  0  0  0  0  0  0  0  0  0  0
  -11.4203   11.5897   69.2663 C   0  0  0  0  0  0  0  0  0  0  0  0
  -11.2334    8.2564   72.5905 C   0  0  0  0  0  0  0  0  0  0  0  0
  -10.3091    8.6495   71.4438 C   0  0  0  0  0  0  0  0  0  0  0  0
  -12.3740    9.8768   71.2525 C   0  0  0  0  0  0  0  0  0  0  0  0
  -12.6086    8.5933   72.0288 C   0  0  2  0  0  0  0  0  0  0  0  0
  -11.4678   14.7442   68.5580 C   0  0  0  0  0  0  0  0  0  0  0  0
  -12.1639   13.9158   69.6610 C   0  0  1  0  0  0  0  0  0  0  0  0
  -10.5930   13.2637   66.8300 N   0  0  0  0  0  0  0  0  0  0  0  0
  -11.0098    9.7355   70.7619 N   0  0  0  0  0  0  0  0  0  0  0  0
  -11.3530   12.7636   69.9831 N   0  0  0  0  0  0  0  0  0  0  0  0
  -13.5951    8.7862   73.1043 N   0  3  0  0  0  0  0  0  0  0  0  0
   -9.3646   10.5432   69.3114 O   0  0  0  0  0  0  0  0  0  0  0  0
  -12.1310   11.3469   68.3032 O   0  0  0  0  0  0  0  0  0  0  0  0
  -13.2813   16.7846   74.0913 H   0  0  0  0  0  0  0  0  0  0  0  0
  -14.7297   14.8743   73.4527 H   0  0  0  0  0  0  0  0  0  0  0  0
  -11.3191   17.3755   72.6920 H   0  0  0  0  0  0  0  0  0  0  0  0
  -13.5519   14.0807   64.4550 H   0  0  0  0  0  0  0  0  0  0  0  0
  -11.7654   12.4931   63.7431 H   0  0  0  0  0  0  0  0  0  0  0  0
  -14.2218   13.5557   71.4234 H   0  0  0  0  0  0  0  0  0  0  0  0
  -10.8028   16.0633   70.6610 H   0  0  0  0  0  0  0  0  0  0  0  0
  -13.4219   15.1370   66.7011 H   0  0  0  0  0  0  0  0  0  0  0  0
   -9.8960   12.0244   65.3362 H   0  0  0  0  0  0  0  0  0  0  0  0
  -11.1365    7.2004   72.8591 H   0  0  0  0  0  0  0  0  0  0  0  0
  -11.0031    8.8645   73.4741 H   0  0  0  0  0  0  0  0  0  0  0  0
   -9.3225    8.9747   71.7862 H   0  0  0  0  0  0  0  0  0  0  0  0
  -10.1876    7.8288   70.7285 H   0  0  0  0  0  0  0  0  0  0  0  0
  -13.0714   10.0154   70.4207 H   0  0  0  0  0  0  0  0  0  0  0  0
  -12.3990   10.7701   71.8875 H   0  0  0  0  0  0  0  0  0  0  0  0
  -12.9799    7.7933   71.3781 H   0  0  0  0  0  0  0  0  0  0  0  0
  -11.9184   15.7452   68.5038 H   0  0  0  0  0  0  0  0  0  0  0  0
  -10.4109   14.9146   68.8023 H   0  0  0  0  0  0  0  0  0  0  0  0
  -13.1060   13.5234   69.2574 H   0  0  0  0  0  0  0  0  0  0  0  0
  -10.7096   12.8218   70.7672 H   0  0  0  0  0  0  0  0  0  0  0  0
  -14.3930    8.1428   73.0057 H   0  0  0  0  0  0  0  0  0  0  0  0
  -13.9723    9.7446   73.1035 H   0  0  0  0  0  0  0  0  0  0  0  0
  -13.1804    8.6206   74.0322 H   0  0  0  0  0  0  0  0  0  0  0  0
  1  2  2  0  0  0  0
  1  3  1  0  0  0  0
  2  6  1  0  0  0  0
  3  7  2  0  0  0  0
  4  5  2  0  0  0  0
  4  8  1  0  0  0  0
  5  9  1  0  0  0  0
  6 10  2  0  0  0  0
  7 10  1  0  0  0  0
  8 11  2  0  0  0  0
  9 20  2  0  0  0  0
 10 19  1  0  0  0  0
 11 18  1  0  0  0  0
 11 20  1  0  0  0  0
 12 13  1  0  0  0  0
 12 21  1  0  0  0  0
 12 24  2  0  0  0  0
 13 22  1  0  0  0  0
 13 25  2  0  0  0  0
 14 15  1  0  0  0  0
 14 17  1  0  0  0  0
 15 21  1  0  0  0  0
 16 17  1  0  0  0  0
 16 21  1  0  0  0  0
 17 23  1  1  0  0  0
 18 19  1  6  0  0  0
 19 22  1  0  0  0  0
  1 26  1  0  0  0  0
  2 27  1  0  0  0  0
  3 28  1  0  0  0  0
  4 29  1  0  0  0  0
  5 30  1  0  0  0  0
  6 31  1  0  0  0  0
  7 32  1  0  0  0  0
  8 33  1  0  0  0  0
  9 34  1  0  0  0  0
 14 35  1  0  0  0  0
 14 36  1  0  0  0  0
 15 37  1  0  0  0  0
 15 38  1  0  0  0  0
 16 39  1  0  0  0  0
 16 40  1  0  0  0  0
 17 41  1  0  0  0  0
 18 42  1  0  0  0  0
 18 43  1  0  0  0  0
 19 44  1  0  0  0  0
 22 45  1  0  0  0  0
 23 46  1  0  0  0  0
 23 47  1  0  0  0  0
 23 48  1  0  0  0  0
M  CHG  1  23   1
M  END
>  <idnumber>
Z2366584888

>  <Chemgauss4>
-14.0498046875

>  <Hetero-Bemis-Murcko>
c1ccc(cc1)C(Cc2ccccn2)NCCN3CCCC3

>  <Hetero-Bemis-Murcko>
c1ccc(cc1)C(Cc2ccccn2)NCCN3CCCC3

>  <MW>
338.411

>  <HBD>
2

>  <HBA>
4

>  <RotBonds>
4

>  <XLogP>
0.764999985694885

>  <sLogP>
1.041

>  <TPSA>
89.9399948120117

>  <FSP3>
0.316

>  <QED>
0.816

$$$$
Z2366584853
  -OEChem-04242015583D

 48 50  0     1  0  0  0  0  0999 V2000
  -13.0557   16.2064   73.2000 C   0  0  0  0  0  0  0  0  0  0  0  0
  -13.8702   15.1325   72.8409 C   0  0  0  0  0  0  0  0  0  0  0  0
  -11.9528   16.5388   72.4134 C   0  0  0  0  0  0  0  0  0  0  0  0
  -12.7241   13.8522   65.1196 C   0  0  0  0  0  0  0  0  0  0  0  0
  -11.7307   12.9663   64.7177 C   0  0  0  0  0  0  0  0  0  0  0  0
  -13.5817   14.3909   71.6953 C   0  0  0  0  0  0  0  0  0  0  0  0
  -11.6643   15.7972   71.2678 C   0  0  0  0  0  0  0  0  0  0  0  0
  -12.6533   14.4442   66.3757 C   0  0  0  0  0  0  0  0  0  0  0  0
  -10.6957   12.7079   65.6019 C   0  0  0  0  0  0  0  0  0  0  0  0
  -12.4788   14.7232   70.9087 C   0  0  0  0  0  0  0  0  0  0  0  0
  -11.5771   14.1195   67.1858 C   0  0  0  0  0  0  0  0  0  0  0  0
  -10.4905   10.5580   69.7883 C   0  0  0  0  0  0  0  0  0  0  0  0
  -11.4203   11.5897   69.2663 C   0  0  0  0  0  0  0  0  0  0  0  0
  -11.2334    8.2564   72.5905 C   0  0  0  0  0  0  0  0  0  0  0  0
  -10.3091    8.6495   71.4438 C   0  0  0  0  0  0  0  0  0  0  0  0
  -12.3740    9.8768   71.2525 C   0  0  0  0  0  0  0  0  0  0  0  0
  -12.6086    8.5933   72.0288 C   0  0  2  0  0  0  0  0  0  0  0  0
  -11.4678   14.7442   68.5580 C   0  0  0  0  0  0  0  0  0  0  0  0
  -12.1639   13.9158   69.6610 C   0  0  1  0  0  0  0  0  0  0  0  0
  -10.5930   13.2637   66.8300 N   0  0  0  0  0  0  0  0  0  0  0  0
  -11.0098    9.7355   70.7619 N   0  0  0  0  0  0  0  0  0  0  0  0
  -11.3530   12.7636   69.9831 N   0  0  0  0  0  0  0  0  0  0  0  0
  -13.5951    8.7862   73.1043 N   0  3  0  0  0  0  0  0  0  0  0  0
   -9.3646   10.5432   69.3114 O   0  0  0  0  0  0  0  0  0  0  0  0
  -12.1310   11.3469   68.3032 O   0  0  0  0  0  0  0  0  0  0  0  0
  -13.2813   16.7846   74.0913 H   0  0  0  0  0  0  0  0  0  0  0  0
  -14.7297   14.8743   73.4527 H   0  0  0  0  0  0  0  0  0  0  0  0
  -11.3191   17.3755   72.6920 H   0  0  0  0  0  0  0  0  0  0  0  0
  -13.5519   14.0807   64.4550 H   0  0  0  0  0  0  0  0  0  0  0  0
  -11.7654   12.4931   63.7431 H   0  0  0  0  0  0  0  0  0  0  0  0
  -14.2218   13.5557   71.4234 H   0  0  0  0  0  0  0  0  0  0  0  0
  -10.8028   16.0633   70.6610 H   0  0  0  0  0  0  0  0  0  0  0  0
  -13.4219   15.1370   66.7011 H   0  0  0  0  0  0  0  0  0  0  0  0
   -9.8960   12.0244   65.3362 H   0  0  0  0  0  0  0  0  0  0  0  0
  -11.1365    7.2004   72.8591 H   0  0  0  0  0  0  0  0  0  0  0  0
  -11.0031    8.8645   73.4741 H   0  0  0  0  0  0  0  0  0  0  0  0
   -9.3225    8.9747   71.7862 H   0  0  0  0  0  0  0  0  0  0  0  0
  -10.1876    7.8288   70.7285 H   0  0  0  0  0  0  0  0  0  0  0  0
  -13.0714   10.0154   70.4207 H   0  0  0  0  0  0  0  0  0  0  0  0
  -12.3990   10.7701   71.8875 H   0  0  0  0  0  0  0  0  0  0  0  0
  -12.9799    7.7933   71.3781 H   0  0  0  0  0  0  0  0  0  0  0  0
  -11.9184   15.7452   68.5038 H   0  0  0  0  0  0  0  0  0  0  0  0
  -10.4109   14.9146   68.8023 H   0  0  0  0  0  0  0  0  0  0  0  0
  -13.1060   13.5234   69.2574 H   0  0  0  0  0  0  0  0  0  0  0  0
  -10.7096   12.8218   70.7672 H   0  0  0  0  0  0  0  0  0  0  0  0
  -14.3930    8.1428   73.0057 H   0  0  0  0  0  0  0  0  0  0  0  0
  -13.9723    9.7446   73.1035 H   0  0  0  0  0  0  0  0  0  0  0  0
  -13.1804    8.6206   74.0322 H   0  0  0  0  0  0  0  0  0  0  0  0
  1  2  2  0  0  0  0
  1  3  1  0  0  0  0
  2  6  1  0  0  0  0
  3  7  2  0  0  0  0
  4  5  2  0  0  0  0
  4  8  1  0  0  0  0
  5  9  1  0  0  0  0
  6 10  2  0  0  0  0
  7 10  1  0  0  0  0
  8 11  2  0  0  0  0
  9 20  2  0  0  0  0
 10 19  1  0  0  0  0
 11 18  1  0  0  0  0
 11 20  1  0  0  0  0
 12 13  1  0  0  0  0
 12 21  1  0  0  0  0
 12 24  2  0  0  0  0
 13 22  1  0  0  0  0
 13 25  2  0  0  0  0
 14 15  1  0  0  0  0
 14 17  1  0  0  0  0
 15 21  1  0  0  0  0
 16 17  1  0  0  0  0
 16 21  1  0  0  0  0
 17 23  1  0  0  0  0
 18 19  1  6  0  0  0
 19 22  1  0  0  0  0
  1 26  1  0  0  0  0
  2 27  1  0  0  0  0
  3 28  1  0  0  0  0
  4 29  1  0  0  0  0
  5 30  1  0  0  0  0
  6 31  1  0  0  0  0
  7 32  1  0  0  0  0
  8 33  1  0  0  0  0
  9 34  1  0  0  0  0
 14 35  1  0  0  0  0
 14 36  1  0  0  0  0
 15 37  1  0  0  0  0
 15 38  1  0  0  0  0
 16 39  1  0  0  0  0
 16 40  1  0  0  0  0
 17 41  1  6  0  0  0
 18 42  1  0  0  0  0
 18 43  1  0  0  0  0
 19 44  1  0  0  0  0
 22 45  1  0  0  0  0
 23 46  1  0  0  0  0
 23 47  1  0  0  0  0
 23 48  1  0  0  0  0
M  CHG  1  23   1
M  END
>  <idnumber>
Z2366584853

>  <Chemgauss4>
-14.0498046875

>  <Hetero-Bemis-Murcko>
c1ccc(cc1)C(Cc2ccccn2)NCCN3CCCC3

>  <Hetero-Bemis-Murcko>
c1ccc(cc1)C(Cc2ccccn2)NCCN3CCCC3

>  <MW>
338.411

>  <HBD>
2

>  <HBA>
4

>  <RotBonds>
4

>  <XLogP>
0.764999985694885

>  <sLogP>
1.041

>  <TPSA>
89.9399948120117

>  <FSP3>
0.316

>  <QED>
0.816

$$$$
Z2039356548
  -OEChem-04242015583D

 55 58  0     1  0  0  0  0  0999 V2000
  -12.8476   16.1137   73.3913 C   0  0  0  0  0  0  0  0  0  0  0  0
  -13.7596   15.1571   72.9455 C   0  0  0  0  0  0  0  0  0  0  0  0
  -11.6819   16.3579   72.6651 C   0  0  0  0  0  0  0  0  0  0  0  0
  -13.5059   14.4446   71.7735 C   0  0  0  0  0  0  0  0  0  0  0  0
  -11.4283   15.6454   71.4931 C   0  0  0  0  0  0  0  0  0  0  0  0
  -12.1357   13.7011   65.3171 C   0  0  0  0  0  0  0  0  0  0  0  0
  -10.8998   13.1299   65.4323 C   0  0  0  0  0  0  0  0  0  0  0  0
  -12.3402   14.6887   71.0473 C   0  0  0  0  0  0  0  0  0  0  0  0
  -11.3519   14.1698   67.3336 C   0  0  0  0  0  0  0  0  0  0  0  0
  -13.3048    9.0099   72.3206 C   0  0  0  0  0  0  0  0  0  0  0  0
  -10.7782   10.3861   69.7811 C   0  0  0  0  0  0  0  0  0  0  0  0
  -11.5645   11.5394   69.2810 C   0  0  0  0  0  0  0  0  0  0  0  0
  -12.7974    9.8059   71.1337 C   0  0  0  0  0  0  0  0  0  0  0  0
  -10.9550    5.5191   72.0884 C   0  0  0  0  0  0  0  0  0  0  0  0
  -10.6875    5.8014   70.6134 C   0  0  0  0  0  0  0  0  0  0  0  0
  -10.4558    6.6580   72.9747 C   0  0  0  0  0  0  0  0  0  0  0  0
  -11.2825    7.1384   70.1777 C   0  0  0  0  0  0  0  0  0  0  0  0
  -11.0253    8.0204   72.5624 C   0  0  1  0  0  0  0  0  0  0  0  0
  -10.7968    8.2903   71.0741 C   0  0  2  0  0  0  0  0  0  0  0  0
  -11.2332   14.7105   68.7403 C   0  0  0  0  0  0  0  0  0  0  0  0
  -12.0632   13.9128   69.7709 C   0  0  1  0  0  0  0  0  0  0  0  0
  -12.3901   14.3374   66.5080 N   0  0  0  0  0  0  0  0  0  0  0  0
  -10.4382   13.4362   66.6898 N   0  3  0  0  0  0  0  0  0  0  0  0
  -12.4352    8.1202   72.9000 N   0  0  0  0  0  0  0  0  0  0  0  0
  -11.4288    9.5551   70.6897 N   0  0  0  0  0  0  0  0  0  0  0  0
  -11.3991   12.6623   70.0611 N   0  0  0  0  0  0  0  0  0  0  0  0
  -14.4601    9.1608   72.7231 O   0  0  0  0  0  0  0  0  0  0  0  0
   -9.6430   10.2829   69.3359 O   0  0  0  0  0  0  0  0  0  0  0  0
  -12.2561   11.4259   68.2802 O   0  0  0  0  0  0  0  0  0  0  0  0
  -13.0459   16.6694   74.3032 H   0  0  0  0  0  0  0  0  0  0  0  0
  -14.6678   14.9677   73.5102 H   0  0  0  0  0  0  0  0  0  0  0  0
  -10.9722   17.1034   73.0113 H   0  0  0  0  0  0  0  0  0  0  0  0
  -14.2220   13.7010   71.4338 H   0  0  0  0  0  0  0  0  0  0  0  0
  -10.5174   15.8422   70.9339 H   0  0  0  0  0  0  0  0  0  0  0  0
  -12.8881   13.7528   64.5555 H   0  0  0  0  0  0  0  0  0  0  0  0
  -10.2660   12.5412   64.7995 H   0  0  0  0  0  0  0  0  0  0  0  0
  -13.4548    9.5897   70.2833 H   0  0  0  0  0  0  0  0  0  0  0  0
  -12.8990   10.8682   71.3812 H   0  0  0  0  0  0  0  0  0  0  0  0
  -12.0302    5.3702   72.2450 H   0  0  0  0  0  0  0  0  0  0  0  0
  -10.4599    4.5854   72.3784 H   0  0  0  0  0  0  0  0  0  0  0  0
   -9.6053    5.8085   70.4335 H   0  0  0  0  0  0  0  0  0  0  0  0
  -11.1069    4.9949   70.0016 H   0  0  0  0  0  0  0  0  0  0  0  0
  -10.6951    6.4452   74.0236 H   0  0  0  0  0  0  0  0  0  0  0  0
   -9.3605    6.7004   72.9128 H   0  0  0  0  0  0  0  0  0  0  0  0
  -11.0033    7.3328   69.1351 H   0  0  0  0  0  0  0  0  0  0  0  0
  -12.3767    7.0634   70.2049 H   0  0  0  0  0  0  0  0  0  0  0  0
  -10.5243    8.7987   73.1524 H   0  0  0  0  0  0  0  0  0  0  0  0
   -9.7148    8.3918   70.9139 H   0  0  0  0  0  0  0  0  0  0  0  0
  -11.5677   15.7573   68.7228 H   0  0  0  0  0  0  0  0  0  0  0  0
  -10.1754   14.7488   69.0325 H   0  0  0  0  0  0  0  0  0  0  0  0
  -13.0248   13.6491   69.3122 H   0  0  0  0  0  0  0  0  0  0  0  0
  -13.2364   14.8553   66.7282 H   0  0  0  0  0  0  0  0  0  0  0  0
   -9.5412   13.1493   67.0721 H   0  0  0  0  0  0  0  0  0  0  0  0
  -12.8001    7.4919   73.6096 H   0  0  0  0  0  0  0  0  0  0  0  0
  -10.7875   12.6097   70.8706 H   0  0  0  0  0  0  0  0  0  0  0  0
  1  2  2  0  0  0  0
  1  3  1  0  0  0  0
  2  4  1  0  0  0  0
  3  5  2  0  0  0  0
  4  8  2  0  0  0  0
  5  8  1  0  0  0  0
  6  7  2  0  0  0  0
  6 22  1  0  0  0  0
  7 23  1  0  0  0  0
  8 21  1  0  0  0  0
  9 20  1  0  0  0  0
  9 22  1  0  0  0  0
  9 23  2  0  0  0  0
 10 13  1  0  0  0  0
 10 24  1  0  0  0  0
 10 27  2  0  0  0  0
 11 12  1  0  0  0  0
 11 25  1  0  0  0  0
 11 28  2  0  0  0  0
 12 26  1  0  0  0  0
 12 29  2  0  0  0  0
 13 25  1  0  0  0  0
 14 15  1  0  0  0  0
 14 16  1  0  0  0  0
 15 17  1  0  0  0  0
 16 18  1  6  0  0  0
 17 19  1  1  0  0  0
 18 19  1  0  0  0  0
 18 24  1  0  0  0  0
 19 25  1  0  0  0  0
 20 21  1  6  0  0  0
 21 26  1  0  0  0  0
  1 30  1  0  0  0  0
  2 31  1  0  0  0  0
  3 32  1  0  0  0  0
  4 33  1  0  0  0  0
  5 34  1  0  0  0  0
  6 35  1  0  0  0  0
  7 36  1  0  0  0  0
 13 37  1  0  0  0  0
 13 38  1  0  0  0  0
 14 39  1  0  0  0  0
 14 40  1  0  0  0  0
 15 41  1  0  0  0  0
 15 42  1  0  0  0  0
 16 43  1  0  0  0  0
 16 44  1  0  0  0  0
 17 45  1  0  0  0  0
 17 46  1  0  0  0  0
 18 47  1  0  0  0  0
 19 48  1  0  0  0  0
 20 49  1  0  0  0  0
 20 50  1  0  0  0  0
 21 51  1  0  0  0  0
 22 52  1  0  0  0  0
 23 53  1  0  0  0  0
 24 54  1  0  0  0  0
 26 55  1  0  0  0  0
M  CHG  1  23   1
M  END
>  <idnumber>
Z2039356548

>  <Chemgauss4>
-14.0407886505127

>  <Hetero-Bemis-Murcko>
c1ccc(cc1)C(Cc2[nH]cc[nH+]2)NCCN3CCNC4C3CCCC4

>  <Hetero-Bemis-Murcko>
c1ccc(cc1)C(Cc2[nH]cc[nH+]2)NCCN3CCNC4C3CCCC4

>  <MW>
395.463

>  <HBD>
3

>  <HBA>
4

>  <RotBonds>
4

>  <XLogP>
1.17999982833862

>  <sLogP>
1.079

>  <TPSA>
108.439994812012

>  <FSP3>
0.429

>  <QED>
0.674

$$$$
Z1411903121
  -OEChem-04242015583D

 54 58  0     1  0  0  0  0  0999 V2000
  -10.2182   16.9220   68.1104 C   0  0  0  0  0  0  0  0  0  0  0  0
  -12.7120   16.1197   73.4912 C   0  0  0  0  0  0  0  0  0  0  0  0
  -10.4341   15.7664   67.3408 C   0  0  0  0  0  0  0  0  0  0  0  0
  -13.3005   14.8443   73.5256 C   0  0  0  0  0  0  0  0  0  0  0  0
  -10.6938   17.0110   69.4220 C   0  0  0  0  0  0  0  0  0  0  0  0
  -12.0494   16.5748   72.3473 C   0  0  0  0  0  0  0  0  0  0  0  0
  -11.1287   14.6762   67.8677 C   0  0  0  0  0  0  0  0  0  0  0  0
  -13.2373   13.9979   72.4172 C   0  0  0  0  0  0  0  0  0  0  0  0
  -11.3827   15.9294   69.9458 C   0  0  0  0  0  0  0  0  0  0  0  0
  -11.9859   15.7354   71.2473 C   0  0  0  0  0  0  0  0  0  0  0  0
  -11.5937   14.7670   69.1694 C   0  0  0  0  0  0  0  0  0  0  0  0
  -12.5757   14.4514   71.2878 C   0  0  0  0  0  0  0  0  0  0  0  0
  -13.2573    9.1675   72.4407 C   0  0  0  0  0  0  0  0  0  0  0  0
  -11.7744   11.4558   69.2050 C   0  0  0  0  0  0  0  0  0  0  0  0
  -12.5763   10.0590   71.4343 C   0  0  0  0  0  0  0  0  0  0  0  0
   -9.8838    6.9836   73.6769 C   0  0  0  0  0  0  0  0  0  0  0  0
   -8.9678    7.9729   72.9629 C   0  0  0  0  0  0  0  0  0  0  0  0
  -10.8417    6.3063   72.7000 C   0  0  0  0  0  0  0  0  0  0  0  0
   -9.7669    9.0142   72.1802 C   0  0  0  0  0  0  0  0  0  0  0  0
  -12.3748   13.7364   69.9639 C   0  0  0  0  0  0  0  0  0  0  0  0
  -11.6539    7.3119   71.8750 C   0  0  2  0  0  0  0  0  0  0  0  0
  -10.7401    8.3401   71.2039 C   0  0  1  0  0  0  0  0  0  0  0  0
  -10.9105   10.2804   69.5875 C   0  0  0  0  0  0  0  0  0  0  0  0
  -12.6870    7.9416   72.6891 N   0  0  0  0  0  0  0  0  0  0  0  0
  -11.6488   12.4976   70.1118 N   0  0  0  0  0  0  0  0  0  0  0  0
  -11.6393    9.3366   70.5043 N   0  3  2  0  0  0  0  0  0  0  0  0
  -14.2443    9.5701   73.0601 O   0  0  0  0  0  0  0  0  0  0  0  0
  -12.4923   11.4688   68.2086 O   0  0  0  0  0  0  0  0  0  0  0  0
   -9.6751   17.7584   67.6780 H   0  0  0  0  0  0  0  0  0  0  0  0
  -12.7748   16.7611   74.3665 H   0  0  0  0  0  0  0  0  0  0  0  0
  -10.0561   15.7231   66.3227 H   0  0  0  0  0  0  0  0  0  0  0  0
  -13.8117   14.5148   74.4263 H   0  0  0  0  0  0  0  0  0  0  0  0
  -10.5212   17.9110   70.0028 H   0  0  0  0  0  0  0  0  0  0  0  0
  -11.6020   17.5631   72.3354 H   0  0  0  0  0  0  0  0  0  0  0  0
  -11.2961   13.7869   67.2700 H   0  0  0  0  0  0  0  0  0  0  0  0
  -13.6950   13.0152   72.4459 H   0  0  0  0  0  0  0  0  0  0  0  0
  -13.3386   10.5317   70.8059 H   0  0  0  0  0  0  0  0  0  0  0  0
  -12.0067   10.8303   71.9623 H   0  0  0  0  0  0  0  0  0  0  0  0
   -9.2782    6.2230   74.1827 H   0  0  0  0  0  0  0  0  0  0  0  0
  -10.4543    7.5053   74.4548 H   0  0  0  0  0  0  0  0  0  0  0  0
   -8.3262    8.4758   73.6952 H   0  0  0  0  0  0  0  0  0  0  0  0
   -8.3052    7.4298   72.2775 H   0  0  0  0  0  0  0  0  0  0  0  0
  -10.2595    5.6775   72.0137 H   0  0  0  0  0  0  0  0  0  0  0  0
  -11.5099    5.6274   73.2433 H   0  0  0  0  0  0  0  0  0  0  0  0
  -10.2973    9.6480   72.8994 H   0  0  0  0  0  0  0  0  0  0  0  0
   -9.0651    9.6583   71.6389 H   0  0  0  0  0  0  0  0  0  0  0  0
  -13.3416   13.5397   69.4883 H   0  0  0  0  0  0  0  0  0  0  0  0
  -12.1990    6.7547   71.1018 H   0  0  0  0  0  0  0  0  0  0  0  0
  -10.1696    7.8391   70.4106 H   0  0  0  0  0  0  0  0  0  0  0  0
  -10.0183   10.6190   70.1214 H   0  0  0  0  0  0  0  0  0  0  0  0
  -10.6288    9.7098   68.6982 H   0  0  0  0  0  0  0  0  0  0  0  0
  -13.0117    7.4330   73.5062 H   0  0  0  0  0  0  0  0  0  0  0  0
  -11.0465   12.3873   70.9226 H   0  0  0  0  0  0  0  0  0  0  0  0
  -12.2396    8.7751   69.8846 H   0  0  0  0  0  0  0  0  0  0  0  0
  1  3  2  0  0  0  0
  1  5  1  0  0  0  0
  2  4  2  0  0  0  0
  2  6  1  0  0  0  0
  3  7  1  0  0  0  0
  4  8  1  0  0  0  0
  5  9  2  0  0  0  0
  6 10  2  0  0  0  0
  7 11  2  0  0  0  0
  8 12  2  0  0  0  0
  9 10  1  0  0  0  0
  9 11  1  0  0  0  0
 10 12  1  0  0  0  0
 11 20  1  0  0  0  0
 12 20  1  0  0  0  0
 13 15  1  0  0  0  0
 13 24  1  0  0  0  0
 13 27  2  0  0  0  0
 14 23  1  0  0  0  0
 14 25  1  0  0  0  0
 14 28  2  0  0  0  0
 15 26  1  0  0  0  0
 16 17  1  0  0  0  0
 16 18  1  0  0  0  0
 17 19  1  0  0  0  0
 18 21  1  1  0  0  0
 19 22  1  6  0  0  0
 20 25  1  0  0  0  0
 21 22  1  0  0  0  0
 21 24  1  0  0  0  0
 22 26  1  0  0  0  0
 23 26  1  1  0  0  0
  1 29  1  0  0  0  0
  2 30  1  0  0  0  0
  3 31  1  0  0  0  0
  4 32  1  0  0  0  0
  5 33  1  0  0  0  0
  6 34  1  0  0  0  0
  7 35  1  0  0  0  0
  8 36  1  0  0  0  0
 15 37  1  0  0  0  0
 15 38  1  0  0  0  0
 16 39  1  0  0  0  0
 16 40  1  0  0  0  0
 17 41  1  0  0  0  0
 17 42  1  0  0  0  0
 18 43  1  0  0  0  0
 18 44  1  0  0  0  0
 19 45  1  0  0  0  0
 19 46  1  0  0  0  0
 20 47  1  0  0  0  0
 21 48  1  0  0  0  0
 22 49  1  0  0  0  0
 23 50  1  0  0  0  0
 23 51  1  0  0  0  0
 24 52  1  0  0  0  0
 25 53  1  0  0  0  0
 26 54  1  0  0  0  0
M  CHG  1  26   1
M  END
>  <idnumber>
Z1411903121

>  <Chemgauss4>
-14.0384635925293

>  <Hetero-Bemis-Murcko>
c1ccc2c(c1)-c3ccccc3C2NCC[NH+]4CCNC5C4CCCC5

>  <Hetero-Bemis-Murcko>
c1ccc2c(c1)-c3ccccc3C2NCC[NH+]4CCNC5C4CCCC5

>  <MW>
375.472

>  <HBD>
2

>  <HBA>
3

>  <RotBonds>
3

>  <XLogP>
3.07699990272522

>  <sLogP>
2.616

>  <TPSA>
62.6399993896484

>  <FSP3>
0.391

>  <QED>
0.867

$$$$
Z3838176393
  -OEChem-04242015583D

 53 55  0     1  0  0  0  0  0999 V2000
  -11.3740   12.8670   64.8843 C   0  0  0  0  0  0  0  0  0  0  0  0
  -12.8203   15.9738   73.5601 C   0  0  0  0  0  0  0  0  0  0  0  0
  -10.3430   12.8040   65.8216 C   0  0  0  0  0  0  0  0  0  0  0  0
  -12.5381   13.5786   65.1746 C   0  0  0  0  0  0  0  0  0  0  0  0
  -13.7311   14.9829   73.1940 C   0  0  0  0  0  0  0  0  0  0  0  0
  -11.7804   16.3187   72.6966 C   0  0  0  0  0  0  0  0  0  0  0  0
  -10.4760   13.4526   67.0494 C   0  0  0  0  0  0  0  0  0  0  0  0
  -12.6711   14.2272   66.4023 C   0  0  0  0  0  0  0  0  0  0  0  0
  -13.6020   14.3367   71.9646 C   0  0  0  0  0  0  0  0  0  0  0  0
  -11.6513   15.6726   71.4672 C   0  0  0  0  0  0  0  0  0  0  0  0
  -11.6401   14.1642   67.3397 C   0  0  0  0  0  0  0  0  0  0  0  0
  -12.5621   14.6815   71.1012 C   0  0  0  0  0  0  0  0  0  0  0  0
  -10.9554   10.5386   69.4242 C   0  0  0  0  0  0  0  0  0  0  0  0
  -11.8637   11.6603   69.0928 C   0  0  0  0  0  0  0  0  0  0  0  0
  -11.3500    8.0654   72.8161 C   0  0  0  0  0  0  0  0  0  0  0  0
  -12.2711   10.0361   71.5257 C   0  0  0  0  0  0  0  0  0  0  0  0
   -9.8481    9.5086   71.3734 C   0  0  0  0  0  0  0  0  0  0  0  0
  -12.5519    8.6349   72.0609 C   0  0  2  0  0  0  0  0  0  0  0  0
  -10.0873    8.1134   71.9509 C   0  0  2  0  0  0  0  0  0  0  0  0
  -11.7850   14.8671   68.6702 C   0  0  0  0  0  0  0  0  0  0  0  0
  -12.4208   13.9780   69.7622 C   0  0  1  0  0  0  0  0  0  0  0  0
  -11.0469   10.0343   70.7145 N   0  0  0  0  0  0  0  0  0  0  0  0
  -11.6558   12.7593   69.8979 N   0  0  0  0  0  0  0  0  0  0  0  0
  -13.7141    8.6980   72.9869 N   0  3  0  0  0  0  0  0  0  0  0  0
  -10.2178   10.1727   68.5183 O   0  0  0  0  0  0  0  0  0  0  0  0
  -12.6801   11.5484   68.1894 O   0  0  0  0  0  0  0  0  0  0  0  0
  -10.1983    7.1897   70.8702 O   0  0  0  0  0  0  0  0  0  0  0  0
  -11.2697   12.3630   63.9278 H   0  0  0  0  0  0  0  0  0  0  0  0
  -12.9217   16.4778   74.5168 H   0  0  0  0  0  0  0  0  0  0  0  0
   -9.4361   12.2508   65.5953 H   0  0  0  0  0  0  0  0  0  0  0  0
  -13.3405   13.6288   64.4446 H   0  0  0  0  0  0  0  0  0  0  0  0
  -14.5415   14.7150   73.8657 H   0  0  0  0  0  0  0  0  0  0  0  0
  -11.0718   17.0910   72.9808 H   0  0  0  0  0  0  0  0  0  0  0  0
   -9.6676   13.3979   67.7737 H   0  0  0  0  0  0  0  0  0  0  0  0
  -13.5817   14.7792   66.6199 H   0  0  0  0  0  0  0  0  0  0  0  0
  -14.3162   13.5656   71.6879 H   0  0  0  0  0  0  0  0  0  0  0  0
  -10.8380   15.9477   70.8010 H   0  0  0  0  0  0  0  0  0  0  0  0
  -11.1737    8.6424   73.7329 H   0  0  0  0  0  0  0  0  0  0  0  0
  -11.5604    7.0292   73.1077 H   0  0  0  0  0  0  0  0  0  0  0  0
  -13.1281   10.3970   70.9508 H   0  0  0  0  0  0  0  0  0  0  0  0
  -12.1034   10.7459   72.3455 H   0  0  0  0  0  0  0  0  0  0  0  0
   -9.5906   10.2112   72.1746 H   0  0  0  0  0  0  0  0  0  0  0  0
   -9.0141    9.4879   70.6639 H   0  0  0  0  0  0  0  0  0  0  0  0
  -12.8503    7.9660   71.2454 H   0  0  0  0  0  0  0  0  0  0  0  0
   -9.2208    7.8112   72.5492 H   0  0  0  0  0  0  0  0  0  0  0  0
  -12.4060   15.7593   68.5082 H   0  0  0  0  0  0  0  0  0  0  0  0
  -10.8076   15.2488   68.9939 H   0  0  0  0  0  0  0  0  0  0  0  0
  -13.4204   13.6755   69.4245 H   0  0  0  0  0  0  0  0  0  0  0  0
  -10.9371   12.7109   70.6143 H   0  0  0  0  0  0  0  0  0  0  0  0
  -14.4472    9.3050   72.6086 H   0  0  0  0  0  0  0  0  0  0  0  0
  -13.4313    9.0693   73.8988 H   0  0  0  0  0  0  0  0  0  0  0  0
  -14.1141    7.7662   73.1316 H   0  0  0  0  0  0  0  0  0  0  0  0
  -10.3070    6.3123   71.2681 H   0  0  0  0  0  0  0  0  0  0  0  0
  1  3  2  0  0  0  0
  1  4  1  0  0  0  0
  2  5  2  0  0  0  0
  2  6  1  0  0  0  0
  3  7  1  0  0  0  0
  4  8  2  0  0  0  0
  5  9  1  0  0  0  0
  6 10  2  0  0  0  0
  7 11  2  0  0  0  0
  8 11  1  0  0  0  0
  9 12  2  0  0  0  0
 10 12  1  0  0  0  0
 11 20  1  0  0  0  0
 12 21  1  0  0  0  0
 13 14  1  0  0  0  0
 13 22  1  0  0  0  0
 13 25  2  0  0  0  0
 14 23  1  0  0  0  0
 14 26  2  0  0  0  0
 15 18  1  0  0  0  0
 15 19  1  0  0  0  0
 16 18  1  0  0  0  0
 16 22  1  0  0  0  0
 17 19  1  0  0  0  0
 17 22  1  0  0  0  0
 18 24  1  1  0  0  0
 19 27  1  1  0  0  0
 20 21  1  6  0  0  0
 21 23  1  0  0  0  0
  1 28  1  0  0  0  0
  2 29  1  0  0  0  0
  3 30  1  0  0  0  0
  4 31  1  0  0  0  0
  5 32  1  0  0  0  0
  6 33  1  0  0  0  0
  7 34  1  0  0  0  0
  8 35  1  0  0  0  0
  9 36  1  0  0  0  0
 10 37  1  0  0  0  0
 15 38  1  0  0  0  0
 15 39  1  0  0  0  0
 16 40  1  0  0  0  0
 16 41  1  0  0  0  0
 17 42  1  0  0  0  0
 17 43  1  0  0  0  0
 18 44  1  0  0  0  0
 19 45  1  0  0  0  0
 20 46  1  0  0  0  0
 20 47  1  0  0  0  0
 21 48  1  0  0  0  0
 23 49  1  0  0  0  0
 24 50  1  0  0  0  0
 24 51  1  0  0  0  0
 24 52  1  0  0  0  0
 27 53  1  0  0  0  0
M  CHG  1  24   1
M  END
>  <idnumber>
Z3838176393

>  <Chemgauss4>
-14.0281085968018

>  <Hetero-Bemis-Murcko>
c1ccc(cc1)CC(c2ccccc2)NCCN3CCCCC3

>  <Hetero-Bemis-Murcko>
c1ccc(cc1)CC(c2ccccc2)NCCN3CCCCC3

>  <MW>
367.449

>  <HBD>
3

>  <HBA>
4

>  <RotBonds>
4

>  <XLogP>
0.809999942779541

>  <sLogP>
1.007

>  <TPSA>
97.2799987792969

>  <FSP3>
0.333

>  <QED>
0.703

$$$$
Z218111012
  -OEChem-04242015583D

 52 54  0     1  0  0  0  0  0999 V2000
  -11.7630   12.9493   64.8009 C   0  0  0  0  0  0  0  0  0  0  0  0
  -13.1105   16.1759   73.3413 C   0  0  0  0  0  0  0  0  0  0  0  0
  -10.7422   12.5439   65.6606 C   0  0  0  0  0  0  0  0  0  0  0  0
  -12.6869   13.9075   65.2182 C   0  0  0  0  0  0  0  0  0  0  0  0
  -13.9877   15.1691   72.9383 C   0  0  0  0  0  0  0  0  0  0  0  0
  -11.9581   16.4351   72.5994 C   0  0  0  0  0  0  0  0  0  0  0  0
  -10.6452   13.0966   66.9376 C   0  0  0  0  0  0  0  0  0  0  0  0
  -12.5900   14.4602   66.4952 C   0  0  0  0  0  0  0  0  0  0  0  0
  -13.7125   14.4214   71.7934 C   0  0  0  0  0  0  0  0  0  0  0  0
  -11.6829   15.6874   71.4545 C   0  0  0  0  0  0  0  0  0  0  0  0
  -11.5691   14.0547   67.3550 C   0  0  0  0  0  0  0  0  0  0  0  0
  -12.5600   14.6805   71.0515 C   0  0  0  0  0  0  0  0  0  0  0  0
  -12.1491    6.3297   71.8397 C   0  0  0  0  0  0  0  0  0  0  0  0
  -11.6803   11.4929   69.3942 C   0  0  0  0  0  0  0  0  0  0  0  0
  -11.7631    6.7047   70.4275 C   0  0  0  0  0  0  0  0  0  0  0  0
  -13.4523    8.4781   71.9920 C   0  0  0  0  0  0  0  0  0  0  0  0
  -10.8617    7.9286   70.3799 C   0  0  0  0  0  0  0  0  0  0  0  0
  -12.3697    9.5015   71.6940 C   0  0  0  0  0  0  0  0  0  0  0  0
  -11.4648   14.6539   68.7389 C   0  0  0  0  0  0  0  0  0  0  0  0
  -10.8319   10.3779   69.9522 C   0  0  0  0  0  0  0  0  0  0  0  0
  -12.2595   13.8664   69.8045 C   0  0  1  0  0  0  0  0  0  0  0  0
  -12.9243    7.2361   72.5225 N   0  0  0  0  0  0  0  0  0  0  0  0
  -11.5484   12.6555   70.1387 N   0  0  0  0  0  0  0  0  0  0  0  0
  -11.6770    9.2033   70.3842 N   0  3  1  0  0  0  0  0  0  0  0  0
  -11.7838    5.2636   72.3371 O   0  0  0  0  0  0  0  0  0  0  0  0
  -12.3919   11.3663   68.4014 O   0  0  0  0  0  0  0  0  0  0  0  0
  -11.8376   12.5199   63.8061 H   0  0  0  0  0  0  0  0  0  0  0  0
  -13.3257   16.7589   74.2321 H   0  0  0  0  0  0  0  0  0  0  0  0
  -10.0221   11.7987   65.3354 H   0  0  0  0  0  0  0  0  0  0  0  0
  -13.4812   14.2242   64.5487 H   0  0  0  0  0  0  0  0  0  0  0  0
  -14.8856   14.9678   73.5153 H   0  0  0  0  0  0  0  0  0  0  0  0
  -11.2755   17.2197   72.9123 H   0  0  0  0  0  0  0  0  0  0  0  0
   -9.8466   12.7745   67.6008 H   0  0  0  0  0  0  0  0  0  0  0  0
  -13.3143   15.2060   66.8118 H   0  0  0  0  0  0  0  0  0  0  0  0
  -14.4015   13.6387   71.4870 H   0  0  0  0  0  0  0  0  0  0  0  0
  -10.7825   15.8963   70.8827 H   0  0  0  0  0  0  0  0  0  0  0  0
  -11.2120    5.8517   70.0114 H   0  0  0  0  0  0  0  0  0  0  0  0
  -12.6598    6.8203   69.8092 H   0  0  0  0  0  0  0  0  0  0  0  0
  -14.1226    8.8772   72.7612 H   0  0  0  0  0  0  0  0  0  0  0  0
  -14.0628    8.2605   71.1090 H   0  0  0  0  0  0  0  0  0  0  0  0
  -10.1572    7.9787   71.2177 H   0  0  0  0  0  0  0  0  0  0  0  0
  -10.3021    7.9216   69.4381 H   0  0  0  0  0  0  0  0  0  0  0  0
  -12.8349   10.4873   71.5820 H   0  0  0  0  0  0  0  0  0  0  0  0
  -11.6095    9.5590   72.4810 H   0  0  0  0  0  0  0  0  0  0  0  0
  -11.8386   15.6859   68.6828 H   0  0  0  0  0  0  0  0  0  0  0  0
  -10.4079   14.7432   69.0232 H   0  0  0  0  0  0  0  0  0  0  0  0
  -10.2840   10.7190   70.8350 H   0  0  0  0  0  0  0  0  0  0  0  0
  -10.1377   10.0106   69.1913 H   0  0  0  0  0  0  0  0  0  0  0  0
  -13.2125   13.5491   69.3620 H   0  0  0  0  0  0  0  0  0  0  0  0
  -13.1873    6.9910   73.4723 H   0  0  0  0  0  0  0  0  0  0  0  0
  -10.9523   12.6597   70.9615 H   0  0  0  0  0  0  0  0  0  0  0  0
  -12.4070    9.1048   69.6655 H   0  0  0  0  0  0  0  0  0  0  0  0
  1  3  2  0  0  0  0
  1  4  1  0  0  0  0
  2  5  2  0  0  0  0
  2  6  1  0  0  0  0
  3  7  1  0  0  0  0
  4  8  2  0  0  0  0
  5  9  1  0  0  0  0
  6 10  2  0  0  0  0
  7 11  2  0  0  0  0
  8 11  1  0  0  0  0
  9 12  2  0  0  0  0
 10 12  1  0  0  0  0
 11 19  1  0  0  0  0
 12 21  1  0  0  0  0
 13 15  1  0  0  0  0
 13 22  1  0  0  0  0
 13 25  2  0  0  0  0
 14 20  1  0  0  0  0
 14 23  1  0  0  0  0
 14 26  2  0  0  0  0
 15 17  1  0  0  0  0
 16 18  1  0  0  0  0
 16 22  1  0  0  0  0
 17 24  1  0  0  0  0
 18 24  1  0  0  0  0
 19 21  1  6  0  0  0
 20 24  1  6  0  0  0
 21 23  1  0  0  0  0
  1 27  1  0  0  0  0
  2 28  1  0  0  0  0
  3 29  1  0  0  0  0
  4 30  1  0  0  0  0
  5 31  1  0  0  0  0
  6 32  1  0  0  0  0
  7 33  1  0  0  0  0
  8 34  1  0  0  0  0
  9 35  1  0  0  0  0
 10 36  1  0  0  0  0
 15 37  1  0  0  0  0
 15 38  1  0  0  0  0
 16 39  1  0  0  0  0
 16 40  1  0  0  0  0
 17 41  1  0  0  0  0
 17 42  1  0  0  0  0
 18 43  1  0  0  0  0
 18 44  1  0  0  0  0
 19 45  1  0  0  0  0
 19 46  1  0  0  0  0
 20 47  1  0  0  0  0
 20 48  1  0  0  0  0
 21 49  1  0  0  0  0
 22 50  1  0  0  0  0
 23 51  1  0  0  0  0
 24 52  1  0  0  0  0
M  CHG  1  24   1
M  END
>  <idnumber>
Z218111012

>  <Chemgauss4>
-14.0266151428223

>  <Hetero-Bemis-Murcko>
c1ccc(cc1)CC(c2ccccc2)NCC[NH+]3CCCNCC3

>  <Hetero-Bemis-Murcko>
c1ccc(cc1)CC(c2ccccc2)NCC[NH+]3CCCNCC3

>  <MW>
351.45

>  <HBD>
2

>  <HBA>
3

>  <RotBonds>
6

>  <XLogP>
1.79699993133545

>  <sLogP>
1.909

>  <TPSA>
62.6399993896484

>  <FSP3>
0.333

>  <QED>
0.836

$$$$
Z383101630
  -OEChem-04242015583D

 52 54  0     1  0  0  0  0  0999 V2000
  -12.5412   16.1922   73.4452 C   0  0  0  0  0  0  0  0  0  0  0  0
  -13.4879   15.2036   73.1771 C   0  0  0  0  0  0  0  0  0  0  0  0
  -11.4803   16.3995   72.5635 C   0  0  0  0  0  0  0  0  0  0  0  0
  -13.3737   14.4221   72.0274 C   0  0  0  0  0  0  0  0  0  0  0  0
  -11.3661   15.6180   71.4138 C   0  0  0  0  0  0  0  0  0  0  0  0
  -10.5844    7.0766   71.0343 C   0  0  0  0  0  0  0  0  0  0  0  0
   -9.5174    8.5924   72.5838 C   0  0  0  0  0  0  0  0  0  0  0  0
   -9.7309    6.0536   71.4473 C   0  0  0  0  0  0  0  0  0  0  0  0
   -8.6639    7.5694   72.9969 C   0  0  0  0  0  0  0  0  0  0  0  0
  -12.8188   13.2923   65.5058 C   0  0  0  0  0  0  0  0  0  0  0  0
  -11.5700   12.7381   65.4974 C   0  0  0  0  0  0  0  0  0  0  0  0
  -12.3128   14.6292   71.1457 C   0  0  0  0  0  0  0  0  0  0  0  0
  -10.4776    8.3461   71.6025 C   0  0  0  0  0  0  0  0  0  0  0  0
   -8.7707    6.2999   72.4286 C   0  0  0  0  0  0  0  0  0  0  0  0
  -11.7937   13.8898   67.3746 C   0  0  0  0  0  0  0  0  0  0  0  0
  -11.7173   11.3715   69.4862 C   0  0  0  0  0  0  0  0  0  0  0  0
  -13.7244    8.7645   71.7540 C   0  0  0  0  0  0  0  0  0  0  0  0
  -11.5063   14.5169   68.7198 C   0  0  0  0  0  0  0  0  0  0  0  0
  -10.8150   10.2470   69.9752 C   0  0  0  0  0  0  0  0  0  0  0  0
  -12.1877   13.7783   69.8935 C   0  0  1  0  0  0  0  0  0  0  0  0
  -11.4047    9.4574   71.1537 C   0  0  1  0  0  0  0  0  0  0  0  0
  -12.9302   13.9990   66.6789 N   0  0  0  0  0  0  0  0  0  0  0  0
  -10.9579   13.1245   66.6653 N   0  3  0  0  0  0  0  0  0  0  0  0
  -14.8702    8.2416   71.1818 N   0  0  0  0  0  0  0  0  0  0  0  0
  -11.4743   12.5535   70.1715 N   0  0  0  0  0  0  0  0  0  0  0  0
  -12.7102    8.9287   70.8222 N   0  0  0  0  0  0  0  0  0  0  0  0
  -12.5441   11.2338   68.5890 O   0  0  0  0  0  0  0  0  0  0  0  0
  -13.6430    9.0410   72.9495 O   0  0  0  0  0  0  0  0  0  0  0  0
   -7.6145    4.9135   72.9874 Br  0  0  0  0  0  0  0  0  0  0  0  0
  -12.6310   16.8016   74.3398 H   0  0  0  0  0  0  0  0  0  0  0  0
  -14.3146   15.0428   73.8629 H   0  0  0  0  0  0  0  0  0  0  0  0
  -10.7436   17.1699   72.7714 H   0  0  0  0  0  0  0  0  0  0  0  0
  -14.1159   13.6539   71.8267 H   0  0  0  0  0  0  0  0  0  0  0  0
  -10.5361   15.7864   70.7327 H   0  0  0  0  0  0  0  0  0  0  0  0
  -11.3296    6.8756   70.2692 H   0  0  0  0  0  0  0  0  0  0  0  0
   -9.4263    9.5786   73.0314 H   0  0  0  0  0  0  0  0  0  0  0  0
   -9.8268    5.0704   70.9937 H   0  0  0  0  0  0  0  0  0  0  0  0
   -7.9214    7.7776   73.7627 H   0  0  0  0  0  0  0  0  0  0  0  0
  -13.6620   13.2918   64.8442 H   0  0  0  0  0  0  0  0  0  0  0  0
  -11.0125   12.1160   64.8258 H   0  0  0  0  0  0  0  0  0  0  0  0
  -11.8559   15.5582   68.6820 H   0  0  0  0  0  0  0  0  0  0  0  0
  -10.4208   14.5806   68.8725 H   0  0  0  0  0  0  0  0  0  0  0  0
  -10.6480    9.5754   69.1227 H   0  0  0  0  0  0  0  0  0  0  0  0
   -9.8449   10.6840   70.2456 H   0  0  0  0  0  0  0  0  0  0  0  0
  -13.1954   13.4800   69.5772 H   0  0  0  0  0  0  0  0  0  0  0  0
  -11.5742   10.1434   71.9932 H   0  0  0  0  0  0  0  0  0  0  0  0
  -13.7495   14.5234   66.9732 H   0  0  0  0  0  0  0  0  0  0  0  0
  -10.0156   12.8680   66.9473 H   0  0  0  0  0  0  0  0  0  0  0  0
  -14.9183    8.0186   70.1934 H   0  0  0  0  0  0  0  0  0  0  0  0
  -15.7002    8.0634   71.7373 H   0  0  0  0  0  0  0  0  0  0  0  0
  -10.7652   12.5576   70.8989 H   0  0  0  0  0  0  0  0  0  0  0  0
  -12.8929    8.6649   69.8602 H   0  0  0  0  0  0  0  0  0  0  0  0
  1  2  2  0  0  0  0
  1  3  1  0  0  0  0
  2  4  1  0  0  0  0
  3  5  2  0  0  0  0
  4 12  2  0  0  0  0
  5 12  1  0  0  0  0
  6  8  1  0  0  0  0
  6 13  2  0  0  0  0
  7  9  2  0  0  0  0
  7 13  1  0  0  0  0
  8 14  2  0  0  0  0
  9 14  1  0  0  0  0
 10 11  2  0  0  0  0
 10 22  1  0  0  0  0
 11 23  1  0  0  0  0
 12 20  1  0  0  0  0
 13 21  1  0  0  0  0
 14 29  1  0  0  0  0
 15 18  1  0  0  0  0
 15 22  1  0  0  0  0
 15 23  2  0  0  0  0
 16 19  1  0  0  0  0
 16 25  1  0  0  0  0
 16 27  2  0  0  0  0
 17 24  1  0  0  0  0
 17 26  1  0  0  0  0
 17 28  2  0  0  0  0
 18 20  1  6  0  0  0
 19 21  1  6  0  0  0
 20 25  1  0  0  0  0
 21 26  1  0  0  0  0
  1 30  1  0  0  0  0
  2 31  1  0  0  0  0
  3 32  1  0  0  0  0
  4 33  1  0  0  0  0
  5 34  1  0  0  0  0
  6 35  1  0  0  0  0
  7 36  1  0  0  0  0
  8 37  1  0  0  0  0
  9 38  1  0  0  0  0
 10 39  1  0  0  0  0
 11 40  1  0  0  0  0
 18 41  1  0  0  0  0
 18 42  1  0  0  0  0
 19 43  1  0  0  0  0
 19 44  1  0  0  0  0
 20 45  1  0  0  0  0
 21 46  1  0  0  0  0
 22 47  1  0  0  0  0
 23 48  1  0  0  0  0
 24 49  1  0  0  0  0
 24 50  1  0  0  0  0
 25 51  1  0  0  0  0
 26 52  1  0  0  0  0
M  CHG  1  23   1
M  END
>  <idnumber>
Z383101630

>  <Chemgauss4>
-14.026162147522

>  <Hetero-Bemis-Murcko>
c1ccc(cc1)CCCNC(Cc2[nH]cc[nH+]2)c3ccccc3

>  <Hetero-Bemis-Murcko>
c1ccc(cc1)CCCNC(Cc2[nH]cc[nH+]2)c3ccccc3

>  <MW>
456.344

>  <HBD>
4

>  <HBA>
3

>  <RotBonds>
8

>  <XLogP>
3.10499978065491

>  <sLogP>
3.372

>  <TPSA>
114.150001525879

>  <FSP3>
0.19

>  <QED>
0.417

$$$$
s_22____10976690____323306
  -OEChem-04242015583D

 48 51  0     1  0  0  0  0  0999 V2000
  -13.0390   15.0807   73.6062 C   0  0  0  0  0  0  0  0  0  0  0  0
  -10.5626   12.9966   64.8367 C   0  0  0  0  0  0  0  0  0  0  0  0
  -13.4174   13.8581   73.0514 C   0  0  0  0  0  0  0  0  0  0  0  0
  -12.4272   16.0486   72.8095 C   0  0  0  0  0  0  0  0  0  0  0  0
   -9.9220   12.1391   65.7311 C   0  0  0  0  0  0  0  0  0  0  0  0
  -11.3264   14.0607   65.3164 C   0  0  0  0  0  0  0  0  0  0  0  0
   -9.8925    8.3820   71.2816 C   0  0  0  0  0  0  0  0  0  0  0  0
  -10.1500    9.4914   70.4740 C   0  0  0  0  0  0  0  0  0  0  0  0
  -13.1839   13.6033   71.7001 C   0  0  0  0  0  0  0  0  0  0  0  0
  -12.1937   15.7938   71.4582 C   0  0  0  0  0  0  0  0  0  0  0  0
  -10.0452   12.3456   67.1050 C   0  0  0  0  0  0  0  0  0  0  0  0
  -11.4496   14.2672   66.6904 C   0  0  0  0  0  0  0  0  0  0  0  0
  -10.8607    7.8856   72.1605 C   0  0  0  0  0  0  0  0  0  0  0  0
  -13.6963   10.0031   71.7397 C   0  0  0  0  0  0  0  0  0  0  0  0
  -12.3715    9.6566   71.3972 C   0  0  0  0  0  0  0  0  0  0  0  0
  -11.3888   10.1433   70.5192 C   0  0  0  0  0  0  0  0  0  0  0  0
  -12.5720   14.5712   70.9034 C   0  0  0  0  0  0  0  0  0  0  0  0
  -10.8090   13.4096   67.5847 C   0  0  0  0  0  0  0  0  0  0  0  0
  -12.0888    8.5501   72.1903 C   0  0  0  0  0  0  0  0  0  0  0  0
  -11.6417   11.2973   69.6745 C   0  0  0  0  0  0  0  0  0  0  0  0
   -9.8240   14.5686   69.6144 C   0  0  0  0  0  0  0  0  0  0  0  0
  -12.3180   14.2952   69.4363 C   0  0  0  0  0  0  0  0  0  0  0  0
  -10.9454   13.6377   69.0991 C   0  0  1  0  0  0  0  0  0  0  0  0
  -14.2198    9.1971   72.6662 N   0  0  0  0  0  0  0  0  0  0  0  0
  -13.2261    8.3292   72.9193 N   0  0  0  0  0  0  0  0  0  0  0  0
  -10.8063   12.4084   69.8462 N   0  0  0  0  0  0  0  0  0  0  0  0
  -12.5778   11.2886   68.8540 O   0  0  0  0  0  0  0  0  0  0  0  0
  -13.2221   15.2794   74.6581 H   0  0  0  0  0  0  0  0  0  0  0  0
  -10.4654   12.8365   63.7669 H   0  0  0  0  0  0  0  0  0  0  0  0
  -13.8947   13.1048   73.6713 H   0  0  0  0  0  0  0  0  0  0  0  0
  -12.1335   17.0009   73.2409 H   0  0  0  0  0  0  0  0  0  0  0  0
   -9.3263   11.3111   65.3578 H   0  0  0  0  0  0  0  0  0  0  0  0
  -11.8243   14.7292   64.6204 H   0  0  0  0  0  0  0  0  0  0  0  0
   -8.9221    7.8948   71.2279 H   0  0  0  0  0  0  0  0  0  0  0  0
   -9.3716    9.8467   69.8023 H   0  0  0  0  0  0  0  0  0  0  0  0
  -13.4819   12.6479   71.2765 H   0  0  0  0  0  0  0  0  0  0  0  0
  -11.7163   16.5537   70.8452 H   0  0  0  0  0  0  0  0  0  0  0  0
   -9.5427   11.6722   67.7945 H   0  0  0  0  0  0  0  0  0  0  0  0
  -12.0468   15.0988   67.0549 H   0  0  0  0  0  0  0  0  0  0  0  0
  -10.6629    7.0239   72.7882 H   0  0  0  0  0  0  0  0  0  0  0  0
  -14.3026   10.8097   71.3521 H   0  0  0  0  0  0  0  0  0  0  0  0
   -9.8905   14.7531   70.6916 H   0  0  0  0  0  0  0  0  0  0  0  0
   -8.8328   14.1468   69.4069 H   0  0  0  0  0  0  0  0  0  0  0  0
   -9.8687   15.5468   69.1196 H   0  0  0  0  0  0  0  0  0  0  0  0
  -13.1339   13.6563   69.0688 H   0  0  0  0  0  0  0  0  0  0  0  0
  -12.4269   15.2395   68.8846 H   0  0  0  0  0  0  0  0  0  0  0  0
  -13.3888    7.6038   73.6064 H   0  0  0  0  0  0  0  0  0  0  0  0
  -10.0980   12.3874   70.5726 H   0  0  0  0  0  0  0  0  0  0  0  0
  1  3  2  0  0  0  0
  1  4  1  0  0  0  0
  2  5  2  0  0  0  0
  2  6  1  0  0  0  0
  3  9  1  0  0  0  0
  4 10  2  0  0  0  0
  5 11  1  0  0  0  0
  6 12  2  0  0  0  0
  7  8  1  0  0  0  0
  7 13  2  0  0  0  0
  8 16  2  0  0  0  0
  9 17  2  0  0  0  0
 10 17  1  0  0  0  0
 11 18  2  0  0  0  0
 12 18  1  0  0  0  0
 13 19  1  0  0  0  0
 14 15  1  0  0  0  0
 14 24  2  0  0  0  0
 15 16  1  0  0  0  0
 15 19  2  0  0  0  0
 16 20  1  0  0  0  0
 17 22  1  0  0  0  0
 18 23  1  0  0  0  0
 19 25  1  0  0  0  0
 20 26  1  0  0  0  0
 20 27  2  0  0  0  0
 21 23  1  6  0  0  0
 22 23  1  0  0  0  0
 23 26  1  0  0  0  0
 24 25  1  0  0  0  0
  1 28  1  0  0  0  0
  2 29  1  0  0  0  0
  3 30  1  0  0  0  0
  4 31  1  0  0  0  0
  5 32  1  0  0  0  0
  6 33  1  0  0  0  0
  7 34  1  0  0  0  0
  8 35  1  0  0  0  0
  9 36  1  0  0  0  0
 10 37  1  0  0  0  0
 11 38  1  0  0  0  0
 12 39  1  0  0  0  0
 13 40  1  0  0  0  0
 14 41  1  0  0  0  0
 21 42  1  0  0  0  0
 21 43  1  0  0  0  0
 21 44  1  0  0  0  0
 22 45  1  0  0  0  0
 22 46  1  0  0  0  0
 25 47  1  0  0  0  0
 26 48  1  0  0  0  0
M  END
>  <idnumber>
s_22____10976690____323306

>  <Chemgauss4>
-14.0219211578369

>  <Hetero-Bemis-Murcko>
c1ccc(cc1)CC(c2ccccc2)NCc3cccc4c3cn[nH]4

>  <Hetero-Bemis-Murcko>
c1ccc(cc1)CC(c2ccccc2)NCc3cccc4c3cn[nH]4

>  <MW>
355.441

>  <HBD>
2

>  <HBA>
2

>  <RotBonds>
5

>  <XLogP>
4.72100019454956

>  <sLogP>
4.451

>  <TPSA>
57.7799987792969

>  <FSP3>
0.13

>  <QED>
0.556

$$$$
Z2445658389
  -OEChem-04242015583D

 51 54  0     1  0  0  0  0  0999 V2000
  -12.3819   16.2996   73.8324 C   0  0  0  0  0  0  0  0  0  0  0  0
  -13.3495   15.3424   73.5269 C   0  0  0  0  0  0  0  0  0  0  0  0
  -11.4133   16.6384   72.8876 C   0  0  0  0  0  0  0  0  0  0  0  0
  -13.3483   14.7240   72.2766 C   0  0  0  0  0  0  0  0  0  0  0  0
  -11.4122   16.0200   71.6373 C   0  0  0  0  0  0  0  0  0  0  0  0
  -12.4745   13.7789   65.5536 C   0  0  0  0  0  0  0  0  0  0  0  0
  -11.1279   13.5747   65.6614 C   0  0  0  0  0  0  0  0  0  0  0  0
  -12.3797   15.0628   71.3318 C   0  0  0  0  0  0  0  0  0  0  0  0
  -11.8098   14.6156   67.4923 C   0  0  0  0  0  0  0  0  0  0  0  0
  -11.0466   10.9221   69.4249 C   0  0  0  0  0  0  0  0  0  0  0  0
  -11.9500   12.0774   69.2010 C   0  0  0  0  0  0  0  0  0  0  0  0
  -11.9257    6.7787   71.9796 C   0  0  0  0  0  0  0  0  0  0  0  0
  -10.9214    7.3643   72.9256 C   0  0  0  0  0  0  0  0  0  0  0  0
  -12.7020   10.2117   71.1272 C   0  0  0  0  0  0  0  0  0  0  0  0
  -10.7960    8.7779   70.7399 C   0  0  0  0  0  0  0  0  0  0  0  0
  -12.5441    9.3307   72.3629 C   0  0  2  0  0  0  0  0  0  0  0  0
  -11.5922    8.2530   71.9052 C   0  0  0  0  0  0  0  0  0  0  0  0
  -11.8161   15.2886   68.8459 C   0  0  0  0  0  0  0  0  0  0  0  0
  -12.3777   14.3895   69.9699 C   0  0  1  0  0  0  0  0  0  0  0  0
  -12.8699   14.4243   66.7004 N   0  0  0  0  0  0  0  0  0  0  0  0
  -10.7433   14.1025   66.8704 N   0  3  0  0  0  0  0  0  0  0  0  0
  -11.4615   10.0291   70.3880 N   0  0  0  0  0  0  0  0  0  0  0  0
  -11.6387   13.1480   70.0092 N   0  0  0  0  0  0  0  0  0  0  0  0
  -13.8860    8.9247   72.8451 N   0  3  0  0  0  0  0  0  0  0  0  0
  -10.0336   10.8795   68.7414 O   0  0  0  0  0  0  0  0  0  0  0  0
  -12.8446   12.0077   68.3721 O   0  0  0  0  0  0  0  0  0  0  0  0
  -12.3838   16.7820   74.8055 H   0  0  0  0  0  0  0  0  0  0  0  0
  -14.1044   15.0793   74.2620 H   0  0  0  0  0  0  0  0  0  0  0  0
  -10.6605   17.3844   73.1247 H   0  0  0  0  0  0  0  0  0  0  0  0
  -14.1060   13.9792   72.0474 H   0  0  0  0  0  0  0  0  0  0  0  0
  -10.6536   16.2902   70.9075 H   0  0  0  0  0  0  0  0  0  0  0  0
  -13.2269   13.5593   64.8225 H   0  0  0  0  0  0  0  0  0  0  0  0
  -10.3698   13.1259   65.0509 H   0  0  0  0  0  0  0  0  0  0  0  0
  -11.5549    6.1259   71.1978 H   0  0  0  0  0  0  0  0  0  0  0  0
  -12.8759    6.4645   72.3924 H   0  0  0  0  0  0  0  0  0  0  0  0
  -11.2099    7.4634   73.9652 H   0  0  0  0  0  0  0  0  0  0  0  0
   -9.8804    7.1029   72.7780 H   0  0  0  0  0  0  0  0  0  0  0  0
  -13.5100    9.8672   70.4704 H   0  0  0  0  0  0  0  0  0  0  0  0
  -12.8688   11.2671   71.3639 H   0  0  0  0  0  0  0  0  0  0  0  0
   -9.7555    8.9912   71.0053 H   0  0  0  0  0  0  0  0  0  0  0  0
  -10.8252    8.1091   69.8737 H   0  0  0  0  0  0  0  0  0  0  0  0
  -12.0850    9.9053   73.1763 H   0  0  0  0  0  0  0  0  0  0  0  0
  -12.4234   16.2007   68.7602 H   0  0  0  0  0  0  0  0  0  0  0  0
  -10.8034   15.6361   69.0895 H   0  0  0  0  0  0  0  0  0  0  0  0
  -13.4115   14.1221   69.7161 H   0  0  0  0  0  0  0  0  0  0  0  0
  -13.8210   14.7118   66.9144 H   0  0  0  0  0  0  0  0  0  0  0  0
   -9.7950   14.1026   67.2362 H   0  0  0  0  0  0  0  0  0  0  0  0
  -10.8609   13.0620   70.6571 H   0  0  0  0  0  0  0  0  0  0  0  0
  -14.5812    8.9854   72.0931 H   0  0  0  0  0  0  0  0  0  0  0  0
  -14.1987    9.5291   73.6131 H   0  0  0  0  0  0  0  0  0  0  0  0
  -13.8764    7.9579   73.1885 H   0  0  0  0  0  0  0  0  0  0  0  0
  1  2  2  0  0  0  0
  1  3  1  0  0  0  0
  2  4  1  0  0  0  0
  3  5  2  0  0  0  0
  4  8  2  0  0  0  0
  5  8  1  0  0  0  0
  6  7  2  0  0  0  0
  6 20  1  0  0  0  0
  7 21  1  0  0  0  0
  8 19  1  0  0  0  0
  9 18  1  0  0  0  0
  9 20  1  0  0  0  0
  9 21  2  0  0  0  0
 10 11  1  0  0  0  0
 10 22  1  0  0  0  0
 10 25  2  0  0  0  0
 11 23  1  0  0  0  0
 11 26  2  0  0  0  0
 12 13  1  0  0  0  0
 12 17  1  0  0  0  0
 13 17  1  0  0  0  0
 14 16  1  0  0  0  0
 14 22  1  0  0  0  0
 15 17  1  0  0  0  0
 15 22  1  0  0  0  0
 16 17  1  0  0  0  0
 16 24  1  1  0  0  0
 18 19  1  6  0  0  0
 19 23  1  0  0  0  0
  1 27  1  0  0  0  0
  2 28  1  0  0  0  0
  3 29  1  0  0  0  0
  4 30  1  0  0  0  0
  5 31  1  0  0  0  0
  6 32  1  0  0  0  0
  7 33  1  0  0  0  0
 12 34  1  0  0  0  0
 12 35  1  0  0  0  0
 13 36  1  0  0  0  0
 13 37  1  0  0  0  0
 14 38  1  0  0  0  0
 14 39  1  0  0  0  0
 15 40  1  0  0  0  0
 15 41  1  0  0  0  0
 16 42  1  0  0  0  0
 18 43  1  0  0  0  0
 18 44  1  0  0  0  0
 19 45  1  0  0  0  0
 20 46  1  0  0  0  0
 21 47  1  0  0  0  0
 23 48  1  0  0  0  0
 24 49  1  0  0  0  0
 24 50  1  0  0  0  0
 24 51  1  0  0  0  0
M  CHG  2  21   1  24   1
M  END
>  <idnumber>
Z2445658389

>  <Chemgauss4>
-14.0213680267334

>  <Hetero-Bemis-Murcko>
c1ccc(cc1)C(Cc2[nH]cc[nH+]2)NCCN3CCC4(C3)CC4

>  <Hetero-Bemis-Murcko>
c1ccc(cc1)C(Cc2[nH]cc[nH+]2)NCCN3CCC4(C3)CC4

>  <MW>
353.426

>  <HBD>
3

>  <HBA>
4

>  <RotBonds>
4

>  <XLogP>
0.567999958992004

>  <sLogP>
0.759

>  <TPSA>
106.979995727539

>  <FSP3>
0.421

>  <QED>
0.706

$$$$
Z2228133538
  -OEChem-04242015583D

 46 49  0     1  0  0  0  0  0999 V2000
   -9.9939   13.5408   65.0140 C   0  0  0  0  0  0  0  0  0  0  0  0
  -13.9865   15.4407   73.2331 C   0  0  0  0  0  0  0  0  0  0  0  0
  -11.2935   14.0421   65.0867 C   0  0  0  0  0  0  0  0  0  0  0  0
   -9.3461   13.1116   66.1725 C   0  0  0  0  0  0  0  0  0  0  0  0
  -12.7623   16.0942   73.0923 C   0  0  0  0  0  0  0  0  0  0  0  0
  -14.4947   14.6777   72.1818 C   0  0  0  0  0  0  0  0  0  0  0  0
   -9.8993    8.9994   71.3370 C   0  0  0  0  0  0  0  0  0  0  0  0
  -10.3981    9.9666   70.4623 C   0  0  0  0  0  0  0  0  0  0  0  0
  -11.9453   14.1142   66.3177 C   0  0  0  0  0  0  0  0  0  0  0  0
   -9.9979   13.1838   67.4035 C   0  0  0  0  0  0  0  0  0  0  0  0
  -12.0463   15.9848   71.9003 C   0  0  0  0  0  0  0  0  0  0  0  0
  -13.7787   14.5682   70.9897 C   0  0  0  0  0  0  0  0  0  0  0  0
  -10.7105    8.4258   72.3215 C   0  0  0  0  0  0  0  0  0  0  0  0
  -13.9008    9.9668   71.9358 C   0  0  0  0  0  0  0  0  0  0  0  0
  -12.5569    9.8267   71.5276 C   0  0  0  0  0  0  0  0  0  0  0  0
  -11.7296   10.3934   70.5438 C   0  0  0  0  0  0  0  0  0  0  0  0
  -11.2976   13.6851   67.4762 C   0  0  0  0  0  0  0  0  0  0  0  0
  -12.5545   15.2218   70.8490 C   0  0  0  0  0  0  0  0  0  0  0  0
  -12.0345    8.8655   72.3858 C   0  0  0  0  0  0  0  0  0  0  0  0
  -12.2341   11.4015   69.6282 C   0  0  0  0  0  0  0  0  0  0  0  0
  -12.0053   13.7635   68.8144 C   0  0  2  0  0  0  0  0  0  0  0  0
  -11.7780   15.1028   69.5548 C   0  0  1  0  0  0  0  0  0  0  0  0
  -14.2168    9.1718   72.9606 N   0  0  0  0  0  0  0  0  0  0  0  0
  -13.0700    8.5184   73.2110 N   0  0  0  0  0  0  0  0  0  0  0  0
  -11.6044   12.6525   69.6475 N   0  0  0  0  0  0  0  0  0  0  0  0
  -13.1984   11.1529   68.8812 O   0  0  0  0  0  0  0  0  0  0  0  0
  -12.1914   16.1835   68.7125 O   0  0  0  0  0  0  0  0  0  0  0  0
   -9.4869   13.4834   64.0552 H   0  0  0  0  0  0  0  0  0  0  0  0
  -14.5432   15.5249   74.1618 H   0  0  0  0  0  0  0  0  0  0  0  0
  -11.7984   14.3753   64.1847 H   0  0  0  0  0  0  0  0  0  0  0  0
   -8.3347   12.7203   66.1161 H   0  0  0  0  0  0  0  0  0  0  0  0
  -12.3659   16.6875   73.9112 H   0  0  0  0  0  0  0  0  0  0  0  0
  -15.4472   14.1678   72.2914 H   0  0  0  0  0  0  0  0  0  0  0  0
   -8.8615    8.6865   71.2530 H   0  0  0  0  0  0  0  0  0  0  0  0
   -9.7360   10.3881   69.7090 H   0  0  0  0  0  0  0  0  0  0  0  0
  -12.9579   14.5064   66.3648 H   0  0  0  0  0  0  0  0  0  0  0  0
   -9.4854   12.8472   68.3008 H   0  0  0  0  0  0  0  0  0  0  0  0
  -11.0933   16.4976   71.7995 H   0  0  0  0  0  0  0  0  0  0  0  0
  -14.1825   13.9717   70.1759 H   0  0  0  0  0  0  0  0  0  0  0  0
  -10.3251    7.6743   73.0014 H   0  0  0  0  0  0  0  0  0  0  0  0
  -14.6637   10.6153   71.5286 H   0  0  0  0  0  0  0  0  0  0  0  0
  -13.0834   13.6153   68.6704 H   0  0  0  0  0  0  0  0  0  0  0  0
  -10.7090   15.2557   69.7499 H   0  0  0  0  0  0  0  0  0  0  0  0
  -13.0599    7.8430   73.9651 H   0  0  0  0  0  0  0  0  0  0  0  0
  -10.8639   12.8235   70.3198 H   0  0  0  0  0  0  0  0  0  0  0  0
  -11.9776   16.9968   69.1920 H   0  0  0  0  0  0  0  0  0  0  0  0
  1  3  2  0  0  0  0
  1  4  1  0  0  0  0
  2  5  2  0  0  0  0
  2  6  1  0  0  0  0
  3  9  1  0  0  0  0
  4 10  2  0  0  0  0
  5 11  1  0  0  0  0
  6 12  2  0  0  0  0
  7  8  1  0  0  0  0
  7 13  2  0  0  0  0
  8 16  2  0  0  0  0
  9 17  2  0  0  0  0
 10 17  1  0  0  0  0
 11 18  2  0  0  0  0
 12 18  1  0  0  0  0
 13 19  1  0  0  0  0
 14 15  1  0  0  0  0
 14 23  2  0  0  0  0
 15 16  1  0  0  0  0
 15 19  2  0  0  0  0
 16 20  1  0  0  0  0
 17 21  1  0  0  0  0
 18 22  1  0  0  0  0
 19 24  1  0  0  0  0
 20 25  1  0  0  0  0
 20 26  2  0  0  0  0
 21 22  1  0  0  0  0
 21 25  1  0  0  0  0
 22 27  1  0  0  0  0
 23 24  1  0  0  0  0
  1 28  1  0  0  0  0
  2 29  1  0  0  0  0
  3 30  1  0  0  0  0
  4 31  1  0  0  0  0
  5 32  1  0  0  0  0
  6 33  1  0  0  0  0
  7 34  1  0  0  0  0
  8 35  1  0  0  0  0
  9 36  1  0  0  0  0
 10 37  1  0  0  0  0
 11 38  1  0  0  0  0
 12 39  1  0  0  0  0
 13 40  1  0  0  0  0
 14 41  1  0  0  0  0
 21 42  1  1  0  0  0
 22 43  1  6  0  0  0
 24 44  1  0  0  0  0
 25 45  1  0  0  0  0
 27 46  1  0  0  0  0
M  END
>  <idnumber>
Z2228133538

>  <Chemgauss4>
-14.0158538818359

>  <Hetero-Bemis-Murcko>
c1ccc(cc1)CC(c2ccccc2)NCc3cccc4c3cn[nH]4

>  <Hetero-Bemis-Murcko>
c1ccc(cc1)CC(c2ccccc2)NCc3cccc4c3cn[nH]4

>  <MW>
357.413

>  <HBD>
3

>  <HBA>
3

>  <RotBonds>
5

>  <XLogP>
3.38499999046326

>  <sLogP>
3.768

>  <TPSA>
78.0099945068359

>  <FSP3>
0.091

>  <QED>
0.509

$$$$
Z3799861359
  -OEChem-04242015583D

 50 51  0     1  0  0  0  0  0999 V2000
  -10.6350   12.9130   66.3825 C   0  0  0  0  0  0  0  0  0  0  0  0
  -12.5804   14.3149   66.0870 C   0  0  0  0  0  0  0  0  0  0  0  0
  -13.2317   14.3949   71.4626 C   0  0  0  0  0  0  0  0  0  0  0  0
  -11.2112   15.6046   70.9228 C   0  0  0  0  0  0  0  0  0  0  0  0
  -10.8564   12.3417   65.1294 C   0  0  0  0  0  0  0  0  0  0  0  0
  -12.8017   13.7437   64.8339 C   0  0  0  0  0  0  0  0  0  0  0  0
  -13.3883   15.1692   72.6121 C   0  0  0  0  0  0  0  0  0  0  0  0
  -11.3677   16.3789   72.0724 C   0  0  0  0  0  0  0  0  0  0  0  0
  -11.4970   13.8995   66.8613 C   0  0  0  0  0  0  0  0  0  0  0  0
  -12.1432   14.6126   70.6179 C   0  0  0  0  0  0  0  0  0  0  0  0
  -11.9397   12.7571   64.3551 C   0  0  0  0  0  0  0  0  0  0  0  0
  -12.4563   16.1612   72.9171 C   0  0  0  0  0  0  0  0  0  0  0  0
  -11.4876   11.3780   68.9500 C   0  0  0  0  0  0  0  0  0  0  0  0
  -11.2573   14.5197   68.2190 C   0  0  0  0  0  0  0  0  0  0  0  0
  -12.3430    9.4742   71.2122 C   0  0  0  0  0  0  0  0  0  0  0  0
  -10.8909    9.8595   70.9030 C   0  0  0  0  0  0  0  0  0  0  0  0
  -12.5203    9.1820   72.6963 C   0  0  0  0  0  0  0  0  0  0  0  0
  -11.9725   13.7701   69.3652 C   0  0  1  0  0  0  0  0  0  0  0  0
  -10.6220   10.2281   69.4386 C   0  0  1  0  0  0  0  0  0  0  0  0
  -11.2624   12.5484   69.6588 N   0  0  0  0  0  0  0  0  0  0  0  0
  -13.9430    8.8591   72.9616 N   0  3  0  0  0  0  0  0  0  0  0  0
  -10.8060    9.0315   68.5699 N   0  3  0  0  0  0  0  0  0  0  0  0
  -12.2902   11.2614   68.0262 O   0  0  0  0  0  0  0  0  0  0  0  0
  -12.1508   12.2105   63.1505 F   0  0  0  0  0  0  0  0  0  0  0  0
  -12.6079   16.9067   74.0196 F   0  0  0  0  0  0  0  0  0  0  0  0
   -9.7887   12.5823   66.9789 H   0  0  0  0  0  0  0  0  0  0  0  0
  -13.2571   15.0832   66.4518 H   0  0  0  0  0  0  0  0  0  0  0  0
  -13.9627   13.6238   71.2337 H   0  0  0  0  0  0  0  0  0  0  0  0
  -10.3601   15.7815   70.2705 H   0  0  0  0  0  0  0  0  0  0  0  0
  -10.1850   11.5742   64.7562 H   0  0  0  0  0  0  0  0  0  0  0  0
  -13.6452   14.0665   64.2310 H   0  0  0  0  0  0  0  0  0  0  0  0
  -14.2359   15.0004   73.2694 H   0  0  0  0  0  0  0  0  0  0  0  0
  -10.6421   17.1510   72.3104 H   0  0  0  0  0  0  0  0  0  0  0  0
  -11.6111   15.5593   68.1761 H   0  0  0  0  0  0  0  0  0  0  0  0
  -10.1777   14.5881   68.4075 H   0  0  0  0  0  0  0  0  0  0  0  0
  -12.6301    8.5891   70.6330 H   0  0  0  0  0  0  0  0  0  0  0  0
  -13.0170   10.2869   70.9170 H   0  0  0  0  0  0  0  0  0  0  0  0
  -10.2343    9.0265   71.1864 H   0  0  0  0  0  0  0  0  0  0  0  0
  -10.6074   10.7043   71.5436 H   0  0  0  0  0  0  0  0  0  0  0  0
  -12.2706   10.0472   73.3173 H   0  0  0  0  0  0  0  0  0  0  0  0
  -11.9333    8.3162   73.0166 H   0  0  0  0  0  0  0  0  0  0  0  0
  -12.9678   13.4685   69.0144 H   0  0  0  0  0  0  0  0  0  0  0  0
   -9.5690   10.5096   69.3209 H   0  0  0  0  0  0  0  0  0  0  0  0
  -10.5813   12.5581   70.4122 H   0  0  0  0  0  0  0  0  0  0  0  0
  -14.4453    9.6786   73.3200 H   0  0  0  0  0  0  0  0  0  0  0  0
  -14.0257    8.1093   73.6571 H   0  0  0  0  0  0  0  0  0  0  0  0
  -14.4154    8.5489   72.1054 H   0  0  0  0  0  0  0  0  0  0  0  0
  -10.4113    8.1989   69.0149 H   0  0  0  0  0  0  0  0  0  0  0  0
  -10.3397    9.1659   67.6688 H   0  0  0  0  0  0  0  0  0  0  0  0
  -11.8000    8.8623   68.3955 H   0  0  0  0  0  0  0  0  0  0  0  0
  1  5  1  0  0  0  0
  1  9  2  0  0  0  0
  2  6  2  0  0  0  0
  2  9  1  0  0  0  0
  3  7  1  0  0  0  0
  3 10  2  0  0  0  0
  4  8  2  0  0  0  0
  4 10  1  0  0  0  0
  5 11  2  0  0  0  0
  6 11  1  0  0  0  0
  7 12  2  0  0  0  0
  8 12  1  0  0  0  0
  9 14  1  0  0  0  0
 10 18  1  0  0  0  0
 11 24  1  0  0  0  0
 12 25  1  0  0  0  0
 13 19  1  0  0  0  0
 13 20  1  0  0  0  0
 13 23  2  0  0  0  0
 14 18  1  6  0  0  0
 15 16  1  0  0  0  0
 15 17  1  0  0  0  0
 16 19  1  0  0  0  0
 17 21  1  0  0  0  0
 18 20  1  0  0  0  0
 19 22  1  1  0  0  0
  1 26  1  0  0  0  0
  2 27  1  0  0  0  0
  3 28  1  0  0  0  0
  4 29  1  0  0  0  0
  5 30  1  0  0  0  0
  6 31  1  0  0  0  0
  7 32  1  0  0  0  0
  8 33  1  0  0  0  0
 14 34  1  0  0  0  0
 14 35  1  0  0  0  0
 15 36  1  0  0  0  0
 15 37  1  0  0  0  0
 16 38  1  0  0  0  0
 16 39  1  0  0  0  0
 17 40  1  0  0  0  0
 17 41  1  0  0  0  0
 18 42  1  0  0  0  0
 19 43  1  0  0  0  0
 20 44  1  0  0  0  0
 21 45  1  0  0  0  0
 21 46  1  0  0  0  0
 21 47  1  0  0  0  0
 22 48  1  0  0  0  0
 22 49  1  0  0  0  0
 22 50  1  0  0  0  0
M  CHG  2  21   1  22   1
M  END
>  <idnumber>
Z3799861359

>  <Chemgauss4>
-14.0047950744629

>  <Hetero-Bemis-Murcko>
c1ccc(cc1)CCc2ccccc2

>  <Hetero-Bemis-Murcko>
c1ccc(cc1)CCc2ccccc2

>  <MW>
347.409

>  <HBD>
3

>  <HBA>
3

>  <RotBonds>
8

>  <XLogP>
2.78800010681152

>  <sLogP>
2.431

>  <TPSA>
84.379997253418

>  <FSP3>
0.316

>  <QED>
0.686

$$$$
Z2365364790
  -OEChem-04242015583D

 54 56  0     1  0  0  0  0  0999 V2000
  -13.0858   14.8136   73.3439 C   0  0  0  0  0  0  0  0  0  0  0  0
  -12.6998   16.1488   73.3082 C   0  0  0  0  0  0  0  0  0  0  0  0
  -10.3120   12.3322   65.9197 C   0  0  0  0  0  0  0  0  0  0  0  0
  -12.5480   12.9651   65.2588 C   0  0  0  0  0  0  0  0  0  0  0  0
  -10.4408   13.0916   67.0826 C   0  0  0  0  0  0  0  0  0  0  0  0
  -12.6768   13.7245   66.4217 C   0  0  0  0  0  0  0  0  0  0  0  0
  -12.9743   14.0326   72.1989 C   0  0  0  0  0  0  0  0  0  0  0  0
  -12.2125   16.6513   72.1124 C   0  0  0  0  0  0  0  0  0  0  0  0
  -11.3656   12.2690   65.0077 C   0  0  0  0  0  0  0  0  0  0  0  0
  -11.6232   13.7877   67.3336 C   0  0  0  0  0  0  0  0  0  0  0  0
  -12.4749   14.6299   71.0527 C   0  0  0  0  0  0  0  0  0  0  0  0
  -10.7565   10.4037   69.7325 C   0  0  0  0  0  0  0  0  0  0  0  0
  -11.7148   11.4585   69.3203 C   0  0  0  0  0  0  0  0  0  0  0  0
  -10.4352    8.4807   71.3513 C   0  0  0  0  0  0  0  0  0  0  0  0
  -12.4790    9.7597   71.3980 C   0  0  0  0  0  0  0  0  0  0  0  0
  -11.4606    7.7615   72.2315 C   0  0  2  0  0  0  0  0  0  0  0  0
  -12.3716    8.9154   72.6565 C   0  0  2  0  0  0  0  0  0  0  0  0
  -11.2288   11.4573   63.7642 C   0  0  0  0  0  0  0  0  0  0  0  0
  -10.8287    7.0143   73.3936 C   0  0  0  0  0  0  0  0  0  0  0  0
  -11.7626   14.6091   68.5950 C   0  0  0  0  0  0  0  0  0  0  0  0
  -12.3393   13.8069   69.7830 C   0  0  1  0  0  0  0  0  0  0  0  0
  -12.0897   15.9237   70.9797 N   0  0  0  0  0  0  0  0  0  0  0  0
  -11.1788    9.5937   70.7620 N   0  0  0  0  0  0  0  0  0  0  0  0
  -11.5269   12.6338   70.0127 N   0  0  0  0  0  0  0  0  0  0  0  0
  -13.6951    8.4343   73.0911 N   0  3  0  0  0  0  0  0  0  0  0  0
   -9.6992   10.3544   69.1201 O   0  0  0  0  0  0  0  0  0  0  0  0
  -12.5458   11.2307   68.4546 O   0  0  0  0  0  0  0  0  0  0  0  0
  -13.4728   14.3825   74.2623 H   0  0  0  0  0  0  0  0  0  0  0  0
  -12.7779   16.7764   74.1886 H   0  0  0  0  0  0  0  0  0  0  0  0
   -9.3869   11.7936   65.7320 H   0  0  0  0  0  0  0  0  0  0  0  0
  -13.3744   12.9203   64.5541 H   0  0  0  0  0  0  0  0  0  0  0  0
   -9.6154   13.1339   67.7882 H   0  0  0  0  0  0  0  0  0  0  0  0
  -13.6014   14.2639   66.6095 H   0  0  0  0  0  0  0  0  0  0  0  0
  -13.2720   12.9896   72.2135 H   0  0  0  0  0  0  0  0  0  0  0  0
  -11.8979   17.6867   72.0323 H   0  0  0  0  0  0  0  0  0  0  0  0
   -9.6083    8.9036   71.9330 H   0  0  0  0  0  0  0  0  0  0  0  0
  -10.0256    7.8343   70.5691 H   0  0  0  0  0  0  0  0  0  0  0  0
  -13.2333    9.3853   70.6962 H   0  0  0  0  0  0  0  0  0  0  0  0
  -12.6779   10.8167   71.5998 H   0  0  0  0  0  0  0  0  0  0  0  0
  -12.0183    7.0501   71.6067 H   0  0  0  0  0  0  0  0  0  0  0  0
  -11.9450    9.4919   73.4859 H   0  0  0  0  0  0  0  0  0  0  0  0
  -11.5714   10.4301   63.9388 H   0  0  0  0  0  0  0  0  0  0  0  0
  -11.8172   11.8853   62.9421 H   0  0  0  0  0  0  0  0  0  0  0  0
  -10.1856   11.4230   63.4235 H   0  0  0  0  0  0  0  0  0  0  0  0
  -10.2693    7.7053   74.0268 H   0  0  0  0  0  0  0  0  0  0  0  0
  -10.1455    6.2482   73.0225 H   0  0  0  0  0  0  0  0  0  0  0  0
  -11.6006    6.5330   73.9968 H   0  0  0  0  0  0  0  0  0  0  0  0
  -12.4197   15.4598   68.3661 H   0  0  0  0  0  0  0  0  0  0  0  0
  -10.7926   15.0534   68.8547 H   0  0  0  0  0  0  0  0  0  0  0  0
  -13.3347   13.4393   69.5024 H   0  0  0  0  0  0  0  0  0  0  0  0
  -10.7900   12.6781   70.7107 H   0  0  0  0  0  0  0  0  0  0  0  0
  -14.4380    8.7452   72.4505 H   0  0  0  0  0  0  0  0  0  0  0  0
  -13.9324    8.7830   74.0300 H   0  0  0  0  0  0  0  0  0  0  0  0
  -13.7292    7.4062   73.1266 H   0  0  0  0  0  0  0  0  0  0  0  0
  1  2  2  0  0  0  0
  1  7  1  0  0  0  0
  2  8  1  0  0  0  0
  3  5  1  0  0  0  0
  3  9  2  0  0  0  0
  4  6  2  0  0  0  0
  4  9  1  0  0  0  0
  5 10  2  0  0  0  0
  6 10  1  0  0  0  0
  7 11  2  0  0  0  0
  8 22  2  0  0  0  0
  9 18  1  0  0  0  0
 10 20  1  0  0  0  0
 11 21  1  0  0  0  0
 11 22  1  0  0  0  0
 12 13  1  0  0  0  0
 12 23  1  0  0  0  0
 12 26  2  0  0  0  0
 13 24  1  0  0  0  0
 13 27  2  0  0  0  0
 14 16  1  0  0  0  0
 14 23  1  0  0  0  0
 15 17  1  0  0  0  0
 15 23  1  0  0  0  0
 16 17  1  0  0  0  0
 16 19  1  1  0  0  0
 17 25  1  6  0  0  0
 20 21  1  1  0  0  0
 21 24  1  0  0  0  0
  1 28  1  0  0  0  0
  2 29  1  0  0  0  0
  3 30  1  0  0  0  0
  4 31  1  0  0  0  0
  5 32  1  0  0  0  0
  6 33  1  0  0  0  0
  7 34  1  0  0  0  0
  8 35  1  0  0  0  0
 14 36  1  0  0  0  0
 14 37  1  0  0  0  0
 15 38  1  0  0  0  0
 15 39  1  0  0  0  0
 16 40  1  0  0  0  0
 17 41  1  0  0  0  0
 18 42  1  0  0  0  0
 18 43  1  0  0  0  0
 18 44  1  0  0  0  0
 19 45  1  0  0  0  0
 19 46  1  0  0  0  0
 19 47  1  0  0  0  0
 20 48  1  0  0  0  0
 20 49  1  0  0  0  0
 21 50  1  0  0  0  0
 24 51  1  0  0  0  0
 25 52  1  0  0  0  0
 25 53  1  0  0  0  0
 25 54  1  0  0  0  0
M  CHG  1  25   1
M  END
>  <idnumber>
Z2365364790

>  <Chemgauss4>
-13.9958486557007

>  <Hetero-Bemis-Murcko>
c1ccc(cc1)CC(c2ccccn2)NCCN3CCCC3

>  <Hetero-Bemis-Murcko>
c1ccc(cc1)CC(c2ccccn2)NCCN3CCCC3

>  <MW>
366.465

>  <HBD>
2

>  <HBA>
4

>  <RotBonds>
4

>  <XLogP>
0.974999725818634

>  <sLogP>
1.596

>  <TPSA>
89.9400024414062

>  <FSP3>
0.381

>  <QED>
0.805

$$$$
s_240690____17030960____16463350
  -OEChem-04242015583D

 51 52  0     1  0  0  0  0  0999 V2000
  -12.5723   15.8006   73.3689 C   0  0  0  0  0  0  0  0  0  0  0  0
  -11.8289   12.5817   64.6396 C   0  0  0  0  0  0  0  0  0  0  0  0
  -13.4747   14.7749   73.0875 C   0  0  0  0  0  0  0  0  0  0  0  0
  -11.5991   16.1498   72.4325 C   0  0  0  0  0  0  0  0  0  0  0  0
  -10.7101   12.4951   65.4680 C   0  0  0  0  0  0  0  0  0  0  0  0
  -12.9425   13.3168   65.0461 C   0  0  0  0  0  0  0  0  0  0  0  0
  -13.4039   14.0983   71.8697 C   0  0  0  0  0  0  0  0  0  0  0  0
  -11.5284   15.4732   71.2148 C   0  0  0  0  0  0  0  0  0  0  0  0
  -10.7048   13.1435   66.7030 C   0  0  0  0  0  0  0  0  0  0  0  0
  -12.9373   13.9652   66.2811 C   0  0  0  0  0  0  0  0  0  0  0  0
  -12.4308   14.4474   70.9334 C   0  0  0  0  0  0  0  0  0  0  0  0
  -11.8184   13.8786   67.1096 C   0  0  0  0  0  0  0  0  0  0  0  0
  -11.7719   11.3866   68.9911 C   0  0  0  0  0  0  0  0  0  0  0  0
  -12.2793    9.2979   71.1943 C   0  0  0  0  0  0  0  0  0  0  0  0
  -10.8914    9.7955   70.7714 C   0  0  0  0  0  0  0  0  0  0  0  0
  -12.2875    8.9058   72.6659 C   0  0  0  0  0  0  0  0  0  0  0  0
  -12.3531   13.7124   69.6099 C   0  0  1  0  0  0  0  0  0  0  0  0
  -11.8135   14.5824   68.4499 C   0  0  2  0  0  0  0  0  0  0  0  0
  -10.7947   10.2686   69.3156 C   0  0  1  0  0  0  0  0  0  0  0  0
  -11.5458   12.5244   69.7509 N   0  0  0  0  0  0  0  0  0  0  0  0
  -13.6544    8.4749   73.0465 N   0  3  0  0  0  0  0  0  0  0  0  0
  -10.9946    9.1171   68.3913 N   0  3  0  0  0  0  0  0  0  0  0  0
  -12.6558   11.2735   68.1443 O   0  0  0  0  0  0  0  0  0  0  0  0
  -12.6277   15.7519   68.3166 O   0  0  0  0  0  0  0  0  0  0  0  0
  -12.6284   16.3282   74.3165 H   0  0  0  0  0  0  0  0  0  0  0  0
  -11.8323   12.0779   63.6774 H   0  0  0  0  0  0  0  0  0  0  0  0
  -14.2332   14.5036   73.8160 H   0  0  0  0  0  0  0  0  0  0  0  0
  -10.8971   16.9490   72.6508 H   0  0  0  0  0  0  0  0  0  0  0  0
   -9.8425   11.9236   65.1512 H   0  0  0  0  0  0  0  0  0  0  0  0
  -13.8133   13.3854   64.4009 H   0  0  0  0  0  0  0  0  0  0  0  0
  -14.1111   13.3003   71.6592 H   0  0  0  0  0  0  0  0  0  0  0  0
  -10.7668   15.7520   70.4913 H   0  0  0  0  0  0  0  0  0  0  0  0
   -9.8287   13.0703   67.3420 H   0  0  0  0  0  0  0  0  0  0  0  0
  -13.8094   14.5356   66.5896 H   0  0  0  0  0  0  0  0  0  0  0  0
  -12.5707    8.4324   70.5882 H   0  0  0  0  0  0  0  0  0  0  0  0
  -13.0267   10.0810   71.0209 H   0  0  0  0  0  0  0  0  0  0  0  0
  -10.1613    8.9918   70.9335 H   0  0  0  0  0  0  0  0  0  0  0  0
  -10.5949   10.6169   71.4360 H   0  0  0  0  0  0  0  0  0  0  0  0
  -12.0279    9.7465   73.3157 H   0  0  0  0  0  0  0  0  0  0  0  0
  -11.6209    8.0626   72.8692 H   0  0  0  0  0  0  0  0  0  0  0  0
  -13.3475   13.3342   69.3396 H   0  0  0  0  0  0  0  0  0  0  0  0
  -10.8002   14.9369   68.6774 H   0  0  0  0  0  0  0  0  0  0  0  0
   -9.7776   10.6251   69.1148 H   0  0  0  0  0  0  0  0  0  0  0  0
  -10.7936   12.5332   70.4334 H   0  0  0  0  0  0  0  0  0  0  0  0
  -14.1654    9.2366   73.5058 H   0  0  0  0  0  0  0  0  0  0  0  0
  -13.6216    7.6808   73.6953 H   0  0  0  0  0  0  0  0  0  0  0  0
  -14.1920    8.1866   72.2216 H   0  0  0  0  0  0  0  0  0  0  0  0
  -10.5082    8.2868   68.7393 H   0  0  0  0  0  0  0  0  0  0  0  0
  -10.6309    9.3358   67.4600 H   0  0  0  0  0  0  0  0  0  0  0  0
  -11.9894    8.8938   68.3036 H   0  0  0  0  0  0  0  0  0  0  0  0
  -12.6146   16.1900   69.1797 H   0  0  0  0  0  0  0  0  0  0  0  0
  1  3  2  0  0  0  0
  1  4  1  0  0  0  0
  2  5  2  0  0  0  0
  2  6  1  0  0  0  0
  3  7  1  0  0  0  0
  4  8  2  0  0  0  0
  5  9  1  0  0  0  0
  6 10  2  0  0  0  0
  7 11  2  0  0  0  0
  8 11  1  0  0  0  0
  9 12  2  0  0  0  0
 10 12  1  0  0  0  0
 11 17  1  0  0  0  0
 12 18  1  0  0  0  0
 13 19  1  0  0  0  0
 13 20  1  0  0  0  0
 13 23  2  0  0  0  0
 14 15  1  0  0  0  0
 14 16  1  0  0  0  0
 15 19  1  0  0  0  0
 16 21  1  0  0  0  0
 17 18  1  0  0  0  0
 17 20  1  0  0  0  0
 18 24  1  0  0  0  0
 19 22  1  1  0  0  0
  1 25  1  0  0  0  0
  2 26  1  0  0  0  0
  3 27  1  0  0  0  0
  4 28  1  0  0  0  0
  5 29  1  0  0  0  0
  6 30  1  0  0  0  0
  7 31  1  0  0  0  0
  8 32  1  0  0  0  0
  9 33  1  0  0  0  0
 10 34  1  0  0  0  0
 14 35  1  0  0  0  0
 14 36  1  0  0  0  0
 15 37  1  0  0  0  0
 15 38  1  0  0  0  0
 16 39  1  0  0  0  0
 16 40  1  0  0  0  0
 17 41  1  6  0  0  0
 18 42  1  1  0  0  0
 19 43  1  0  0  0  0
 20 44  1  0  0  0  0
 21 45  1  0  0  0  0
 21 46  1  0  0  0  0
 21 47  1  0  0  0  0
 22 48  1  0  0  0  0
 22 49  1  0  0  0  0
 22 50  1  0  0  0  0
 24 51  1  0  0  0  0
M  CHG  2  21   1  22   1
M  END
>  <idnumber>
s_240690____17030960____16463350

>  <Chemgauss4>
-13.9917373657227

>  <Hetero-Bemis-Murcko>
c1ccc(cc1)CCc2ccccc2

>  <Hetero-Bemis-Murcko>
c1ccc(cc1)CCc2ccccc2

>  <MW>
327.428

>  <HBD>
4

>  <HBA>
4

>  <RotBonds>
8

>  <XLogP>
1.5699999332428

>  <sLogP>
1.644

>  <TPSA>
104.610000610352

>  <FSP3>
0.316

>  <QED>
0.592

$$$$
Z2083892815
  -OEChem-04242015583D

 69 72  0     1  0  0  0  0  0999 V2000
  -12.6949   16.1744   73.6267 C   0  0  0  0  0  0  0  0  0  0  0  0
  -13.6256   15.2432   73.1659 C   0  0  0  0  0  0  0  0  0  0  0  0
  -11.5454   16.4387   72.8821 C   0  0  0  0  0  0  0  0  0  0  0  0
   -9.7897    5.6036   69.2505 C   0  0  0  0  0  0  0  0  0  0  0  0
  -13.4067   14.5762   71.9606 C   0  0  0  0  0  0  0  0  0  0  0  0
  -11.3265   15.7718   71.6768 C   0  0  0  0  0  0  0  0  0  0  0  0
   -9.5596    6.4574   70.3574 C   0  0  0  0  0  0  0  0  0  0  0  0
  -10.9072    6.0717   68.5953 C   0  0  0  0  0  0  0  0  0  0  0  0
  -12.2571   14.8405   71.2160 C   0  0  0  0  0  0  0  0  0  0  0  0
  -10.5437    7.4212   70.3449 C   0  0  0  0  0  0  0  0  0  0  0  0
  -10.7927   10.5636   69.7582 C   0  0  0  0  0  0  0  0  0  0  0  0
  -11.5635   11.7501   69.3158 C   0  0  0  0  0  0  0  0  0  0  0  0
  -13.1182    8.6858   71.9515 C   0  0  0  0  0  0  0  0  0  0  0  0
  -11.7457    8.2190   72.4307 C   0  0  0  0  0  0  0  0  0  0  0  0
   -9.1342   13.9812   66.8291 C   0  0  0  0  0  0  0  0  0  0  0  0
  -10.8418   14.8099   65.1560 C   0  0  0  0  0  0  0  0  0  0  0  0
  -12.8083    9.9329   71.1396 C   0  0  0  0  0  0  0  0  0  0  0  0
   -9.3471   12.5580   66.3264 C   0  0  0  0  0  0  0  0  0  0  0  0
  -11.0412   13.3802   64.6664 C   0  0  0  0  0  0  0  0  0  0  0  0
  -10.8012    8.5881   71.2803 C   0  0  2  0  0  0  0  0  0  0  0  0
  -10.3411   14.8884   66.5970 C   0  0  0  0  0  0  0  0  0  0  0  0
   -9.8693   11.2114   64.2943 C   0  0  0  0  0  0  0  0  0  0  0  0
  -12.7969   14.9150   67.0225 C   0  0  0  0  0  0  0  0  0  0  0  0
  -11.2129   14.9765   68.9308 C   0  0  0  0  0  0  0  0  0  0  0  0
  -12.0186   14.1163   69.9070 C   0  0  1  0  0  0  0  0  0  0  0  0
  -11.3573    7.1767   69.2696 N   0  0  0  0  0  0  0  0  0  0  0  0
  -11.4535    9.7308   70.6365 N   0  0  0  0  0  0  0  0  0  0  0  0
  -11.3734   12.8424   70.1374 N   0  0  0  0  0  0  0  0  0  0  0  0
   -9.7688   12.5944   64.8769 N   0  3  0  0  0  0  0  0  0  0  0  0
  -11.4407   14.4918   67.5230 N   0  3  2  0  0  0  0  0  0  0  0  0
   -9.6634   10.4445   69.3054 O   0  0  0  0  0  0  0  0  0  0  0  0
  -12.2725   11.6976   68.3168 O   0  0  0  0  0  0  0  0  0  0  0  0
  -12.8662   16.6946   74.5646 H   0  0  0  0  0  0  0  0  0  0  0  0
  -14.5212   15.0380   73.7450 H   0  0  0  0  0  0  0  0  0  0  0  0
  -10.8212   17.1645   73.2400 H   0  0  0  0  0  0  0  0  0  0  0  0
   -9.2058    4.7411   68.9616 H   0  0  0  0  0  0  0  0  0  0  0  0
  -14.1371   13.8521   71.6095 H   0  0  0  0  0  0  0  0  0  0  0  0
  -10.4280   15.9840   71.1034 H   0  0  0  0  0  0  0  0  0  0  0  0
   -8.7622    6.3753   71.0831 H   0  0  0  0  0  0  0  0  0  0  0  0
  -11.4205    5.7171   67.7126 H   0  0  0  0  0  0  0  0  0  0  0  0
  -13.5720    7.9214   71.3098 H   0  0  0  0  0  0  0  0  0  0  0  0
  -13.8008    8.8862   72.7821 H   0  0  0  0  0  0  0  0  0  0  0  0
  -11.4678    8.7862   73.3277 H   0  0  0  0  0  0  0  0  0  0  0  0
  -11.7426    7.1541   72.6848 H   0  0  0  0  0  0  0  0  0  0  0  0
   -8.8708   13.9599   67.8935 H   0  0  0  0  0  0  0  0  0  0  0  0
   -8.2670   14.4124   66.3116 H   0  0  0  0  0  0  0  0  0  0  0  0
  -10.1119   15.3077   64.5041 H   0  0  0  0  0  0  0  0  0  0  0  0
  -11.7781   15.3702   65.0456 H   0  0  0  0  0  0  0  0  0  0  0  0
  -13.5104   10.0880   70.3151 H   0  0  0  0  0  0  0  0  0  0  0  0
  -12.8007   10.8271   71.7726 H   0  0  0  0  0  0  0  0  0  0  0  0
   -8.4117   11.9911   66.3808 H   0  0  0  0  0  0  0  0  0  0  0  0
  -10.1234   12.0275   66.8880 H   0  0  0  0  0  0  0  0  0  0  0  0
  -11.8462   12.8636   65.1997 H   0  0  0  0  0  0  0  0  0  0  0  0
  -11.2569   13.3719   63.5927 H   0  0  0  0  0  0  0  0  0  0  0  0
   -9.8045    8.9190   71.6892 H   0  0  0  0  0  0  0  0  0  0  0  0
  -10.0960   15.9230   66.8591 H   0  0  0  0  0  0  0  0  0  0  0  0
  -10.6555   10.6787   64.8324 H   0  0  0  0  0  0  0  0  0  0  0  0
  -10.1168   11.3118   63.2358 H   0  0  0  0  0  0  0  0  0  0  0  0
   -8.9024   10.7221   64.4266 H   0  0  0  0  0  0  0  0  0  0  0  0
  -12.8080   16.0051   66.9693 H   0  0  0  0  0  0  0  0  0  0  0  0
  -12.9418   14.4722   66.0352 H   0  0  0  0  0  0  0  0  0  0  0  0
  -13.5433   14.5490   67.7302 H   0  0  0  0  0  0  0  0  0  0  0  0
  -11.5112   16.0298   68.9468 H   0  0  0  0  0  0  0  0  0  0  0  0
  -10.1358   14.9037   69.1129 H   0  0  0  0  0  0  0  0  0  0  0  0
  -12.9866   13.8745   69.4498 H   0  0  0  0  0  0  0  0  0  0  0  0
  -12.1665    7.7248   69.0115 H   0  0  0  0  0  0  0  0  0  0  0  0
  -10.7548   12.7478   70.9370 H   0  0  0  0  0  0  0  0  0  0  0  0
   -9.0234   13.0755   64.3548 H   0  0  0  0  0  0  0  0  0  0  0  0
  -11.4520   13.4606   67.5655 H   0  0  0  0  0  0  0  0  0  0  0  0
  1  2  2  0  0  0  0
  1  3  1  0  0  0  0
  2  5  1  0  0  0  0
  3  6  2  0  0  0  0
  4  7  1  0  0  0  0
  4  8  2  0  0  0  0
  5  9  2  0  0  0  0
  6  9  1  0  0  0  0
  7 10  2  0  0  0  0
  8 26  1  0  0  0  0
  9 25  1  0  0  0  0
 10 20  1  1  0  0  0
 10 26  1  0  0  0  0
 11 12  1  0  0  0  0
 11 27  1  0  0  0  0
 11 31  2  0  0  0  0
 12 28  1  0  0  0  0
 12 32  2  0  0  0  0
 13 14  1  0  0  0  0
 13 17  1  0  0  0  0
 14 20  1  0  0  0  0
 15 18  1  0  0  0  0
 15 21  1  0  0  0  0
 16 19  1  0  0  0  0
 16 21  1  0  0  0  0
 17 27  1  0  0  0  0
 18 29  1  0  0  0  0
 19 29  1  0  0  0  0
 20 27  1  0  0  0  0
 21 30  1  0  0  0  0
 22 29  1  0  0  0  0
 23 30  1  6  0  0  0
 24 25  1  1  0  0  0
 24 30  1  0  0  0  0
 25 28  1  0  0  0  0
  1 33  1  0  0  0  0
  2 34  1  0  0  0  0
  3 35  1  0  0  0  0
  4 36  1  0  0  0  0
  5 37  1  0  0  0  0
  6 38  1  0  0  0  0
  7 39  1  0  0  0  0
  8 40  1  0  0  0  0
 13 41  1  0  0  0  0
 13 42  1  0  0  0  0
 14 43  1  0  0  0  0
 14 44  1  0  0  0  0
 15 45  1  0  0  0  0
 15 46  1  0  0  0  0
 16 47  1  0  0  0  0
 16 48  1  0  0  0  0
 17 49  1  0  0  0  0
 17 50  1  0  0  0  0
 18 51  1  0  0  0  0
 18 52  1  0  0  0  0
 19 53  1  0  0  0  0
 19 54  1  0  0  0  0
 20 55  1  0  0  0  0
 21 56  1  0  0  0  0
 22 57  1  0  0  0  0
 22 58  1  0  0  0  0
 22 59  1  0  0  0  0
 23 60  1  0  0  0  0
 23 61  1  0  0  0  0
 23 62  1  0  0  0  0
 24 63  1  0  0  0  0
 24 64  1  0  0  0  0
 25 65  1  0  0  0  0
 26 66  1  0  0  0  0
 28 67  1  0  0  0  0
 29 68  1  0  0  0  0
 30 69  1  0  0  0  0
M  CHG  2  29   1  30   1
M  END
>  <idnumber>
Z2083892815

>  <Chemgauss4>
-13.9913368225098

>  <Hetero-Bemis-Murcko>
c1ccc(cc1)C(C[NH2+]C2CC[NH2+]CC2)NCCN3CCCC3c4ccc[nH]4

>  <Hetero-Bemis-Murcko>
c1ccc(cc1)C(C[NH2+]C2CC[NH2+]CC2)NCCN3CCCC3c4ccc[nH]4

>  <MW>
437.588

>  <HBD>
2

>  <HBA>
4

>  <RotBonds>
6

>  <XLogP>
2.24699974060059

>  <sLogP>
2.562

>  <TPSA>
74.0800018310547

>  <FSP3>
0.52

>  <QED>
0.682

$$$$
Z4061762735
  -OEChem-04242015583D

 52 54  0     1  0  0  0  0  0999 V2000
  -10.3386   12.9645   64.9444 C   0  0  0  0  0  0  0  0  0  0  0  0
  -13.0976   15.6165   73.4571 C   0  0  0  0  0  0  0  0  0  0  0  0
   -9.2734   13.2547   65.7969 C   0  0  0  0  0  0  0  0  0  0  0  0
  -11.6440   12.9591   65.4361 C   0  0  0  0  0  0  0  0  0  0  0  0
  -14.1811   15.2665   72.6516 C   0  0  0  0  0  0  0  0  0  0  0  0
  -11.8057   15.6071   72.9311 C   0  0  0  0  0  0  0  0  0  0  0  0
   -9.5135   13.5393   67.1411 C   0  0  0  0  0  0  0  0  0  0  0  0
  -11.8841   13.2437   66.7804 C   0  0  0  0  0  0  0  0  0  0  0  0
  -13.9729   14.9070   71.3200 C   0  0  0  0  0  0  0  0  0  0  0  0
  -11.5974   15.2475   71.5996 C   0  0  0  0  0  0  0  0  0  0  0  0
  -10.8188   13.5338   67.6329 C   0  0  0  0  0  0  0  0  0  0  0  0
  -12.6810   14.8975   70.7940 C   0  0  0  0  0  0  0  0  0  0  0  0
  -11.7834   11.5405   69.7161 C   0  0  0  0  0  0  0  0  0  0  0  0
  -10.9396    7.9245   70.6500 C   0  0  0  0  0  0  0  0  0  0  0  0
  -11.1051    9.1815   69.7973 C   0  0  0  0  0  0  0  0  0  0  0  0
  -12.1795    7.6544   71.5010 C   0  0  0  0  0  0  0  0  0  0  0  0
  -12.7208   10.1286   71.4950 C   0  0  0  0  0  0  0  0  0  0  0  0
  -11.4745   10.3888   70.6537 C   0  0  2  0  0  0  0  0  0  0  0  0
  -12.5401    8.8736   72.3475 C   0  0  1  0  0  0  0  0  0  0  0  0
  -11.0804   13.8428   69.0937 C   0  0  1  0  0  0  0  0  0  0  0  0
  -12.4542   14.5071   69.3491 C   0  0  2  0  0  0  0  0  0  0  0  0
  -10.9611   12.6383   69.8835 N   0  0  0  0  0  0  0  0  0  0  0  0
  -13.8084    8.5974   73.0730 N   0  3  0  0  0  0  0  0  0  0  0  0
  -12.6969   11.4321   68.9066 O   0  0  0  0  0  0  0  0  0  0  0  0
  -12.5551   15.7018   68.5673 O   0  0  0  0  0  0  0  0  0  0  0  0
  -10.1516   12.7442   63.8974 H   0  0  0  0  0  0  0  0  0  0  0  0
  -13.2600   15.8977   74.4935 H   0  0  0  0  0  0  0  0  0  0  0  0
   -8.2571   13.2600   65.4139 H   0  0  0  0  0  0  0  0  0  0  0  0
  -12.4736   12.7343   64.7725 H   0  0  0  0  0  0  0  0  0  0  0  0
  -15.1872   15.2749   73.0606 H   0  0  0  0  0  0  0  0  0  0  0  0
  -10.9619   15.8806   73.5577 H   0  0  0  0  0  0  0  0  0  0  0  0
   -8.6773   13.7641   67.7980 H   0  0  0  0  0  0  0  0  0  0  0  0
  -12.9043   13.2370   67.1547 H   0  0  0  0  0  0  0  0  0  0  0  0
  -14.8231   14.6355   70.6998 H   0  0  0  0  0  0  0  0  0  0  0  0
  -10.5873   15.2429   71.1984 H   0  0  0  0  0  0  0  0  0  0  0  0
  -10.7425    7.0628   70.0025 H   0  0  0  0  0  0  0  0  0  0  0  0
  -10.0664    8.0397   71.3043 H   0  0  0  0  0  0  0  0  0  0  0  0
  -10.1753    9.3784   69.2497 H   0  0  0  0  0  0  0  0  0  0  0  0
  -11.8783    9.0061   69.0377 H   0  0  0  0  0  0  0  0  0  0  0  0
  -13.0142    7.3923   70.8379 H   0  0  0  0  0  0  0  0  0  0  0  0
  -11.9947    6.7870   72.1456 H   0  0  0  0  0  0  0  0  0  0  0  0
  -12.9228   10.9958   72.1366 H   0  0  0  0  0  0  0  0  0  0  0  0
  -13.5952   10.0170   70.8390 H   0  0  0  0  0  0  0  0  0  0  0  0
  -10.6498   10.6865   71.2729 H   0  0  0  0  0  0  0  0  0  0  0  0
  -11.7792    9.0424   73.1178 H   0  0  0  0  0  0  0  0  0  0  0  0
  -10.2895   14.4993   69.4789 H   0  0  0  0  0  0  0  0  0  0  0  0
  -13.2654   13.8493   69.0123 H   0  0  0  0  0  0  0  0  0  0  0  0
  -10.2381   12.5967   70.5956 H   0  0  0  0  0  0  0  0  0  0  0  0
  -14.6028    8.5880   72.4263 H   0  0  0  0  0  0  0  0  0  0  0  0
  -13.9842    9.3147   73.7833 H   0  0  0  0  0  0  0  0  0  0  0  0
  -13.7683    7.6874   73.5421 H   0  0  0  0  0  0  0  0  0  0  0  0
  -12.4081   15.4364   67.6481 H   0  0  0  0  0  0  0  0  0  0  0  0
  1  3  2  0  0  0  0
  1  4  1  0  0  0  0
  2  5  2  0  0  0  0
  2  6  1  0  0  0  0
  3  7  1  0  0  0  0
  4  8  2  0  0  0  0
  5  9  1  0  0  0  0
  6 10  2  0  0  0  0
  7 11  2  0  0  0  0
  8 11  1  0  0  0  0
  9 12  2  0  0  0  0
 10 12  1  0  0  0  0
 11 20  1  0  0  0  0
 12 21  1  0  0  0  0
 13 18  1  0  0  0  0
 13 22  1  0  0  0  0
 13 24  2  0  0  0  0
 14 15  1  0  0  0  0
 14 16  1  0  0  0  0
 15 18  1  0  0  0  0
 16 19  1  0  0  0  0
 17 18  1  0  0  0  0
 17 19  1  0  0  0  0
 19 23  1  0  0  0  0
 20 21  1  0  0  0  0
 20 22  1  0  0  0  0
 21 25  1  0  0  0  0
  1 26  1  0  0  0  0
  2 27  1  0  0  0  0
  3 28  1  0  0  0  0
  4 29  1  0  0  0  0
  5 30  1  0  0  0  0
  6 31  1  0  0  0  0
  7 32  1  0  0  0  0
  8 33  1  0  0  0  0
  9 34  1  0  0  0  0
 10 35  1  0  0  0  0
 14 36  1  0  0  0  0
 14 37  1  0  0  0  0
 15 38  1  0  0  0  0
 15 39  1  0  0  0  0
 16 40  1  0  0  0  0
 16 41  1  0  0  0  0
 17 42  1  0  0  0  0
 17 43  1  0  0  0  0
 18 44  1  6  0  0  0
 19 45  1  1  0  0  0
 20 46  1  6  0  0  0
 21 47  1  1  0  0  0
 22 48  1  0  0  0  0
 23 49  1  0  0  0  0
 23 50  1  0  0  0  0
 23 51  1  0  0  0  0
 25 52  1  0  0  0  0
M  CHG  1  23   1
M  END
>  <idnumber>
Z4061762735

>  <Chemgauss4>
-13.9908351898193

>  <Hetero-Bemis-Murcko>
c1ccc(cc1)CC(c2ccccc2)NCC3CCCCC3

>  <Hetero-Bemis-Murcko>
c1ccc(cc1)CC(c2ccccc2)NCC3CCCCC3

>  <MW>
338.451

>  <HBD>
3

>  <HBA>
3

>  <RotBonds>
5

>  <XLogP>
2.98500037193298

>  <sLogP>
3.095

>  <TPSA>
76.9700012207031

>  <FSP3>
0.381

>  <QED>
0.784

$$$$
Z1523195413
  -OEChem-04242015583D

 45 48  0     1  0  0  0  0  0999 V2000
  -13.7860   15.3077   73.2988 C   0  0  0  0  0  0  0  0  0  0  0  0
  -12.5484   15.9510   73.3025 C   0  0  0  0  0  0  0  0  0  0  0  0
  -14.2604   14.7148   72.1287 C   0  0  0  0  0  0  0  0  0  0  0  0
  -11.7852   16.0016   72.1361 C   0  0  0  0  0  0  0  0  0  0  0  0
  -13.4972   14.7654   70.9622 C   0  0  0  0  0  0  0  0  0  0  0  0
  -11.9851    7.2290   71.0158 C   0  0  0  0  0  0  0  0  0  0  0  0
  -11.2980    6.5945   72.0546 C   0  0  0  0  0  0  0  0  0  0  0  0
  -10.1259    8.6473   72.6107 C   0  0  0  0  0  0  0  0  0  0  0  0
  -10.7958   10.6391   71.0653 C   0  0  0  0  0  0  0  0  0  0  0  0
  -12.2731   13.3742   65.7281 C   0  0  0  0  0  0  0  0  0  0  0  0
  -10.6469   11.7766   64.9499 C   0  0  0  0  0  0  0  0  0  0  0  0
  -10.8066    9.3082   71.5690 C   0  0  0  0  0  0  0  0  0  0  0  0
  -12.2596   15.4088   70.9659 C   0  0  0  0  0  0  0  0  0  0  0  0
  -11.7187    8.5853   70.7971 C   0  0  0  0  0  0  0  0  0  0  0  0
  -10.3823    7.2908   72.8410 C   0  0  0  0  0  0  0  0  0  0  0  0
  -11.6846   10.6972   70.0167 C   0  0  0  0  0  0  0  0  0  0  0  0
  -11.0573   13.3888   66.3790 C   0  0  0  0  0  0  0  0  0  0  0  0
  -12.0164   11.8192   69.1968 C   0  0  0  0  0  0  0  0  0  0  0  0
  -11.4347   15.4633   69.7039 C   0  0  0  0  0  0  0  0  0  0  0  0
  -10.6776   14.3062   67.5149 C   0  0  0  0  0  0  0  0  0  0  0  0
  -11.6156   14.2730   68.7390 C   0  0  1  0  0  0  0  0  0  0  0  0
  -10.1237   12.4731   65.9343 N   0  0  0  0  0  0  0  0  0  0  0  0
  -12.2365    9.4537   69.8627 N   0  0  0  0  0  0  0  0  0  0  0  0
  -11.3716   13.0462   69.4632 N   0  0  0  0  0  0  0  0  0  0  0  0
  -12.8697   11.7318   68.2779 O   0  0  0  0  0  0  0  0  0  0  0  0
  -12.2574   12.1703   64.5067 S   0  0  0  0  0  0  0  0  0  0  0  0
   -9.5560    6.4743   74.1135 Cl  0  0  0  0  0  0  0  0  0  0  0  0
  -14.3796   15.2672   74.2075 H   0  0  0  0  0  0  0  0  0  0  0  0
  -12.1784   16.4117   74.2138 H   0  0  0  0  0  0  0  0  0  0  0  0
  -15.2235   14.2129   72.1257 H   0  0  0  0  0  0  0  0  0  0  0  0
  -10.8221   16.5051   72.1483 H   0  0  0  0  0  0  0  0  0  0  0  0
  -13.8749   14.3009   70.0552 H   0  0  0  0  0  0  0  0  0  0  0  0
  -12.6973    6.6856   70.4038 H   0  0  0  0  0  0  0  0  0  0  0  0
  -11.4922    5.5400   72.2388 H   0  0  0  0  0  0  0  0  0  0  0  0
   -9.4116    9.1915   73.2230 H   0  0  0  0  0  0  0  0  0  0  0  0
  -10.1997   11.4634   71.4338 H   0  0  0  0  0  0  0  0  0  0  0  0
  -13.1437   13.9912   65.9010 H   0  0  0  0  0  0  0  0  0  0  0  0
  -10.0975   10.9958   64.4420 H   0  0  0  0  0  0  0  0  0  0  0  0
  -10.3700   15.5706   69.9518 H   0  0  0  0  0  0  0  0  0  0  0  0
  -11.7030   16.3960   69.1877 H   0  0  0  0  0  0  0  0  0  0  0  0
   -9.6494   14.0993   67.8413 H   0  0  0  0  0  0  0  0  0  0  0  0
  -10.6472   15.3257   67.1045 H   0  0  0  0  0  0  0  0  0  0  0  0
  -12.6600   14.2076   68.4150 H   0  0  0  0  0  0  0  0  0  0  0  0
  -12.9246    9.2054   69.1651 H   0  0  0  0  0  0  0  0  0  0  0  0
  -10.7360   13.0950   70.2527 H   0  0  0  0  0  0  0  0  0  0  0  0
  1  2  2  0  0  0  0
  1  3  1  0  0  0  0
  2  4  1  0  0  0  0
  3  5  2  0  0  0  0
  4 13  2  0  0  0  0
  5 13  1  0  0  0  0
  6  7  1  0  0  0  0
  6 14  2  0  0  0  0
  7 15  2  0  0  0  0
  8 12  2  0  0  0  0
  8 15  1  0  0  0  0
  9 12  1  0  0  0  0
  9 16  2  0  0  0  0
 10 17  2  0  0  0  0
 10 26  1  0  0  0  0
 11 22  2  0  0  0  0
 11 26  1  0  0  0  0
 12 14  1  0  0  0  0
 13 19  1  0  0  0  0
 14 23  1  0  0  0  0
 15 27  1  0  0  0  0
 16 18  1  0  0  0  0
 16 23  1  0  0  0  0
 17 20  1  0  0  0  0
 17 22  1  0  0  0  0
 18 24  1  0  0  0  0
 18 25  2  0  0  0  0
 19 21  1  1  0  0  0
 20 21  1  0  0  0  0
 21 24  1  0  0  0  0
  1 28  1  0  0  0  0
  2 29  1  0  0  0  0
  3 30  1  0  0  0  0
  4 31  1  0  0  0  0
  5 32  1  0  0  0  0
  6 33  1  0  0  0  0
  7 34  1  0  0  0  0
  8 35  1  0  0  0  0
  9 36  1  0  0  0  0
 10 37  1  0  0  0  0
 11 38  1  0  0  0  0
 19 39  1  0  0  0  0
 19 40  1  0  0  0  0
 20 41  1  0  0  0  0
 20 42  1  0  0  0  0
 21 43  1  0  0  0  0
 23 44  1  0  0  0  0
 24 45  1  0  0  0  0
M  END
>  <idnumber>
Z1523195413

>  <Chemgauss4>
-13.9822864532471

>  <Hetero-Bemis-Murcko>
c1ccc(cc1)CC(Cc2cscn2)NCc3cc4ccccc4[nH]3

>  <Hetero-Bemis-Murcko>
c1ccc(cc1)CC(Cc2cscn2)NCc3cc4ccccc4[nH]3

>  <MW>
395.915

>  <HBD>
2

>  <HBA>
3

>  <RotBonds>
6

>  <XLogP>
4.6060004234314

>  <sLogP>
4.862

>  <TPSA>
57.7799987792969

>  <FSP3>
0.143

>  <QED>
0.489

$$$$
Z2861568146
  -OEChem-04242015583D

 57 59  0     1  0  0  0  0  0999 V2000
  -13.0627   15.7424   73.4831 C   0  0  0  0  0  0  0  0  0  0  0  0
  -13.8964   14.7170   73.0369 C   0  0  0  0  0  0  0  0  0  0  0  0
  -11.9690   16.1372   72.7126 C   0  0  0  0  0  0  0  0  0  0  0  0
  -12.8950   14.1746   65.2091 C   0  0  0  0  0  0  0  0  0  0  0  0
  -11.9195   13.3209   64.7062 C   0  0  0  0  0  0  0  0  0  0  0  0
  -13.6363   14.0862   71.8203 C   0  0  0  0  0  0  0  0  0  0  0  0
  -11.7088   15.5064   71.4960 C   0  0  0  0  0  0  0  0  0  0  0  0
  -12.7959   14.6420   66.5148 C   0  0  0  0  0  0  0  0  0  0  0  0
  -10.8732   12.9674   65.5430 C   0  0  0  0  0  0  0  0  0  0  0  0
  -12.5425   14.4809   71.0499 C   0  0  0  0  0  0  0  0  0  0  0  0
  -11.7105   14.2292   67.2707 C   0  0  0  0  0  0  0  0  0  0  0  0
  -10.6257   10.4225   69.4986 C   0  0  0  0  0  0  0  0  0  0  0  0
  -11.5494   11.5076   69.0957 C   0  0  0  0  0  0  0  0  0  0  0  0
  -10.2076    6.8494   71.3119 C   0  0  0  0  0  0  0  0  0  0  0  0
  -11.5407    6.9675   70.5703 C   0  0  0  0  0  0  0  0  0  0  0  0
   -9.2149    7.9756   71.0109 C   0  0  0  0  0  0  0  0  0  0  0  0
  -12.7089    7.4700   71.4247 C   0  0  0  0  0  0  0  0  0  0  0  0
   -9.6201    9.3769   71.4725 C   0  0  0  0  0  0  0  0  0  0  0  0
  -12.0655    9.9743   71.5231 C   0  0  0  0  0  0  0  0  0  0  0  0
  -12.4419    8.7039   72.2896 C   0  0  1  0  0  0  0  0  0  0  0  0
  -11.5706   14.7174   68.6945 C   0  0  0  0  0  0  0  0  0  0  0  0
  -12.2585   13.7941   69.7249 C   0  0  1  0  0  0  0  0  0  0  0  0
  -10.7431   13.4010   66.8168 N   0  0  0  0  0  0  0  0  0  0  0  0
  -10.7982    9.9013   70.7802 N   0  0  0  0  0  0  0  0  0  0  0  0
  -11.4567   12.6075   69.9202 N   0  0  0  0  0  0  0  0  0  0  0  0
  -13.7099    9.0019   73.0360 N   0  3  0  0  0  0  0  0  0  0  0  0
   -9.7991   10.0950   68.6566 O   0  0  0  0  0  0  0  0  0  0  0  0
  -12.2802   11.3679   68.1259 O   0  0  0  0  0  0  0  0  0  0  0  0
  -13.2662   16.2344   74.4297 H   0  0  0  0  0  0  0  0  0  0  0  0
  -14.7487   14.4103   73.6362 H   0  0  0  0  0  0  0  0  0  0  0  0
  -11.3203   16.9363   73.0591 H   0  0  0  0  0  0  0  0  0  0  0  0
  -13.7308   14.4750   64.5844 H   0  0  0  0  0  0  0  0  0  0  0  0
  -11.9763   12.9443   63.6914 H   0  0  0  0  0  0  0  0  0  0  0  0
  -14.2911   13.2880   71.4807 H   0  0  0  0  0  0  0  0  0  0  0  0
  -10.8543   15.8205   70.9025 H   0  0  0  0  0  0  0  0  0  0  0  0
  -13.5503   15.3084   66.9190 H   0  0  0  0  0  0  0  0  0  0  0  0
  -10.0866   12.3041   65.1986 H   0  0  0  0  0  0  0  0  0  0  0  0
  -10.4009    6.8114   72.3782 H   0  0  0  0  0  0  0  0  0  0  0  0
   -9.7392    5.9117   71.0289 H   0  0  0  0  0  0  0  0  0  0  0  0
  -11.3843    7.6831   69.7522 H   0  0  0  0  0  0  0  0  0  0  0  0
  -11.7918    6.0231   70.0762 H   0  0  0  0  0  0  0  0  0  0  0  0
   -8.2697    7.7246   71.5183 H   0  0  0  0  0  0  0  0  0  0  0  0
   -8.9562    7.9803   69.9427 H   0  0  0  0  0  0  0  0  0  0  0  0
  -13.6130    7.6164   70.7984 H   0  0  0  0  0  0  0  0  0  0  0  0
  -12.9842    6.6397   72.1079 H   0  0  0  0  0  0  0  0  0  0  0  0
   -9.7907    9.3666   72.5443 H   0  0  0  0  0  0  0  0  0  0  0  0
   -8.8063   10.0688   71.2704 H   0  0  0  0  0  0  0  0  0  0  0  0
  -12.8677   10.2712   70.8262 H   0  0  0  0  0  0  0  0  0  0  0  0
  -11.9787   10.8152   72.2325 H   0  0  0  0  0  0  0  0  0  0  0  0
  -11.7050    8.4728   73.0527 H   0  0  0  0  0  0  0  0  0  0  0  0
  -12.0096   15.7238   68.7449 H   0  0  0  0  0  0  0  0  0  0  0  0
  -10.5078   14.8521   68.9353 H   0  0  0  0  0  0  0  0  0  0  0  0
  -13.2120   13.4526   69.3022 H   0  0  0  0  0  0  0  0  0  0  0  0
  -10.7999   12.5836   70.6949 H   0  0  0  0  0  0  0  0  0  0  0  0
  -14.4770    9.1482   72.3800 H   0  0  0  0  0  0  0  0  0  0  0  0
  -13.5945    9.8438   73.6005 H   0  0  0  0  0  0  0  0  0  0  0  0
  -13.9464    8.2231   73.6508 H   0  0  0  0  0  0  0  0  0  0  0  0
  1  2  2  0  0  0  0
  1  3  1  0  0  0  0
  2  6  1  0  0  0  0
  3  7  2  0  0  0  0
  4  5  2  0  0  0  0
  4  8  1  0  0  0  0
  5  9  1  0  0  0  0
  6 10  2  0  0  0  0
  7 10  1  0  0  0  0
  8 11  2  0  0  0  0
  9 23  2  0  0  0  0
 10 22  1  0  0  0  0
 11 21  1  0  0  0  0
 11 23  1  0  0  0  0
 12 13  1  0  0  0  0
 12 24  1  0  0  0  0
 12 27  2  0  0  0  0
 13 25  1  0  0  0  0
 13 28  2  0  0  0  0
 14 15  1  0  0  0  0
 14 16  1  0  0  0  0
 15 17  1  0  0  0  0
 16 18  1  0  0  0  0
 17 20  1  0  0  0  0
 18 24  1  0  0  0  0
 19 20  1  0  0  0  0
 19 24  1  0  0  0  0
 20 26  1  6  0  0  0
 21 22  1  6  0  0  0
 22 25  1  0  0  0  0
  1 29  1  0  0  0  0
  2 30  1  0  0  0  0
  3 31  1  0  0  0  0
  4 32  1  0  0  0  0
  5 33  1  0  0  0  0
  6 34  1  0  0  0  0
  7 35  1  0  0  0  0
  8 36  1  0  0  0  0
  9 37  1  0  0  0  0
 14 38  1  0  0  0  0
 14 39  1  0  0  0  0
 15 40  1  0  0  0  0
 15 41  1  0  0  0  0
 16 42  1  0  0  0  0
 16 43  1  0  0  0  0
 17 44  1  0  0  0  0
 17 45  1  0  0  0  0
 18 46  1  0  0  0  0
 18 47  1  0  0  0  0
 19 48  1  0  0  0  0
 19 49  1  0  0  0  0
 20 50  1  0  0  0  0
 21 51  1  0  0  0  0
 21 52  1  0  0  0  0
 22 53  1  0  0  0  0
 25 54  1  0  0  0  0
 26 55  1  0  0  0  0
 26 56  1  0  0  0  0
 26 57  1  0  0  0  0
M  CHG  1  26   1
M  END
>  <idnumber>
Z2861568146

>  <Chemgauss4>
-13.9786672592163

>  <Hetero-Bemis-Murcko>
c1ccc(cc1)C(Cc2ccccn2)NCCN3CCCCCCC3

>  <Hetero-Bemis-Murcko>
c1ccc(cc1)C(Cc2ccccn2)NCCN3CCCCCCC3

>  <MW>
380.492

>  <HBD>
2

>  <HBA>
4

>  <RotBonds>
4

>  <XLogP>
2.24699974060059

>  <sLogP>
2.212

>  <TPSA>
89.9399948120117

>  <FSP3>
0.409

>  <QED>
0.796

$$$$
s_240690____16719276____15795356
  -OEChem-04242015583D

 40 42  0     1  0  0  0  0  0999 V2000
  -13.4698   14.0462   72.6265 C   0  0  0  0  0  0  0  0  0  0  0  0
  -12.4556   16.2035   72.2335 C   0  0  0  0  0  0  0  0  0  0  0  0
  -13.1575   13.6618   71.3225 C   0  0  0  0  0  0  0  0  0  0  0  0
  -12.1433   15.8191   70.9295 C   0  0  0  0  0  0  0  0  0  0  0  0
  -10.0614    9.4838   70.7279 C   0  0  0  0  0  0  0  0  0  0  0  0
   -9.9224    8.4551   71.6536 C   0  0  0  0  0  0  0  0  0  0  0  0
  -13.6650   10.0288   71.7305 C   0  0  0  0  0  0  0  0  0  0  0  0
  -12.3185    9.7052   71.4706 C   0  0  0  0  0  0  0  0  0  0  0  0
  -11.2900   10.1360   70.6233 C   0  0  0  0  0  0  0  0  0  0  0  0
  -13.1189   15.3170   73.0820 C   0  0  0  0  0  0  0  0  0  0  0  0
  -12.4943   14.5482   70.4740 C   0  0  0  0  0  0  0  0  0  0  0  0
  -12.0452    8.6676   72.3481 C   0  0  0  0  0  0  0  0  0  0  0  0
  -11.4870   11.2151   69.6738 C   0  0  0  0  0  0  0  0  0  0  0  0
  -13.4524   15.7288   74.4759 C   0  0  0  0  0  0  0  0  0  0  0  0
  -10.7584   13.5079   68.9586 C   0  0  0  0  0  0  0  0  0  0  0  0
  -12.1544   14.1300   69.0606 C   0  0  2  0  0  0  0  0  0  0  0  0
  -10.8853    8.0034   72.4933 N   0  0  0  0  0  0  0  0  0  0  0  0
  -14.2055    9.2676   72.6877 N   0  0  0  0  0  0  0  0  0  0  0  0
  -13.1979    8.4503   73.0437 N   0  0  0  0  0  0  0  0  0  0  0  0
  -10.6678   12.3439   69.8104 N   0  0  0  0  0  0  0  0  0  0  0  0
  -12.2399   15.2725   68.0957 N   0  3  0  0  0  0  0  0  0  0  0  0
  -12.3653   11.1344   68.7942 O   0  0  0  0  0  0  0  0  0  0  0  0
  -13.9873   13.3492   73.2805 H   0  0  0  0  0  0  0  0  0  0  0  0
  -12.1775   17.1952   72.5806 H   0  0  0  0  0  0  0  0  0  0  0  0
  -13.4334   12.6692   70.9767 H   0  0  0  0  0  0  0  0  0  0  0  0
  -11.6266   16.5160   70.2749 H   0  0  0  0  0  0  0  0  0  0  0  0
   -9.2216    9.7676   70.1010 H   0  0  0  0  0  0  0  0  0  0  0  0
   -8.9706    7.9383   71.7456 H   0  0  0  0  0  0  0  0  0  0  0  0
  -14.2780   10.7871   71.2640 H   0  0  0  0  0  0  0  0  0  0  0  0
  -12.6334   15.4683   75.1576 H   0  0  0  0  0  0  0  0  0  0  0  0
  -13.6281   16.8105   74.5408 H   0  0  0  0  0  0  0  0  0  0  0  0
  -14.3683   15.2367   74.8285 H   0  0  0  0  0  0  0  0  0  0  0  0
   -9.9909   14.2206   69.2820 H   0  0  0  0  0  0  0  0  0  0  0  0
  -10.5203   13.2046   67.9329 H   0  0  0  0  0  0  0  0  0  0  0  0
  -12.9016   13.4125   68.6994 H   0  0  0  0  0  0  0  0  0  0  0  0
  -13.3670    7.7661   73.7703 H   0  0  0  0  0  0  0  0  0  0  0  0
  -10.0107   12.3869   70.5824 H   0  0  0  0  0  0  0  0  0  0  0  0
  -12.7853   15.0023   67.2766 H   0  0  0  0  0  0  0  0  0  0  0  0
  -11.3050   15.5466   67.7911 H   0  0  0  0  0  0  0  0  0  0  0  0
  -12.6889   16.0750   68.5385 H   0  0  0  0  0  0  0  0  0  0  0  0
  1  3  1  0  0  0  0
  1 10  2  0  0  0  0
  2  4  2  0  0  0  0
  2 10  1  0  0  0  0
  3 11  2  0  0  0  0
  4 11  1  0  0  0  0
  5  6  1  0  0  0  0
  5  9  2  0  0  0  0
  6 17  2  0  0  0  0
  7  8  1  0  0  0  0
  7 18  2  0  0  0  0
  8  9  1  0  0  0  0
  8 12  2  0  0  0  0
  9 13  1  0  0  0  0
 10 14  1  0  0  0  0
 11 16  1  0  0  0  0
 12 17  1  0  0  0  0
 12 19  1  0  0  0  0
 13 20  1  0  0  0  0
 13 22  2  0  0  0  0
 15 16  1  0  0  0  0
 15 20  1  0  0  0  0
 16 21  1  1  0  0  0
 18 19  1  0  0  0  0
  1 23  1  0  0  0  0
  2 24  1  0  0  0  0
  3 25  1  0  0  0  0
  4 26  1  0  0  0  0
  5 27  1  0  0  0  0
  6 28  1  0  0  0  0
  7 29  1  0  0  0  0
 14 30  1  0  0  0  0
 14 31  1  0  0  0  0
 14 32  1  0  0  0  0
 15 33  1  0  0  0  0
 15 34  1  0  0  0  0
 16 35  1  0  0  0  0
 19 36  1  0  0  0  0
 20 37  1  0  0  0  0
 21 38  1  0  0  0  0
 21 39  1  0  0  0  0
 21 40  1  0  0  0  0
M  CHG  1  21   1
M  END
>  <idnumber>
s_240690____16719276____15795356

>  <Chemgauss4>
-13.9742784500122

>  <Hetero-Bemis-Murcko>
c1ccc(cc1)CCNCc2ccnc3c2cn[nH]3

>  <Hetero-Bemis-Murcko>
c1ccc(cc1)CCNCc2ccnc3c2cn[nH]3

>  <MW>
295.346

>  <HBD>
3

>  <HBA>
4

>  <RotBonds>
4

>  <XLogP>
1.23299992084503

>  <sLogP>
1.696

>  <TPSA>
98.3099975585938

>  <FSP3>
0.188

>  <QED>
0.682

$$$$
Z2861292466
  -OEChem-04242015583D

 54 56  0     1  0  0  0  0  0999 V2000
  -12.3420   16.3989   72.7050 C   0  0  0  0  0  0  0  0  0  0  0  0
  -12.1032   15.7525   71.4973 C   0  0  0  0  0  0  0  0  0  0  0  0
   -9.8997   12.3752   66.3180 C   0  0  0  0  0  0  0  0  0  0  0  0
  -11.9737   13.2411   65.4314 C   0  0  0  0  0  0  0  0  0  0  0  0
  -10.1284   13.0532   67.5153 C   0  0  0  0  0  0  0  0  0  0  0  0
  -12.2025   13.9190   66.6288 C   0  0  0  0  0  0  0  0  0  0  0  0
  -13.0389   15.7084   73.6834 C   0  0  0  0  0  0  0  0  0  0  0  0
  -13.2490   13.8503   72.3487 C   0  0  0  0  0  0  0  0  0  0  0  0
  -10.8223   12.4692   65.2760 C   0  0  0  0  0  0  0  0  0  0  0  0
  -11.2798   13.8251   67.6708 C   0  0  0  0  0  0  0  0  0  0  0  0
  -12.5621   14.4538   71.3077 C   0  0  0  0  0  0  0  0  0  0  0  0
  -10.9946   10.2095   69.8629 C   0  0  0  0  0  0  0  0  0  0  0  0
  -11.8087   11.3687   69.4226 C   0  0  0  0  0  0  0  0  0  0  0  0
  -11.8060    7.8632   72.5765 C   0  0  0  0  0  0  0  0  0  0  0  0
  -12.9592    9.5272   71.3007 C   0  0  0  0  0  0  0  0  0  0  0  0
  -13.1960    8.2484   72.0842 C   0  0  2  0  0  0  0  0  0  0  0  0
  -10.9128    8.2359   71.3869 C   0  0  1  0  0  0  0  0  0  0  0  0
  -10.5785   11.7447   63.9956 C   0  0  0  0  0  0  0  0  0  0  0  0
  -10.7498    7.0773   70.4049 C   0  0  0  0  0  0  0  0  0  0  0  0
  -11.5279   14.5581   68.9694 C   0  0  0  0  0  0  0  0  0  0  0  0
  -12.3168   13.7201   70.0002 C   0  0  1  0  0  0  0  0  0  0  0  0
  -13.5002   14.4462   73.5359 N   0  0  0  0  0  0  0  0  0  0  0  0
  -11.6070    9.3681   70.7669 N   0  0  0  0  0  0  0  0  0  0  0  0
  -11.6308   12.4691   70.2313 N   0  0  0  0  0  0  0  0  0  0  0  0
  -14.1201    8.4702   73.2094 N   0  3  0  0  0  0  0  0  0  0  0  0
   -9.8713   10.1204   69.3881 O   0  0  0  0  0  0  0  0  0  0  0  0
  -12.5298   11.2774   68.4408 O   0  0  0  0  0  0  0  0  0  0  0  0
  -11.9934   17.4111   72.8751 H   0  0  0  0  0  0  0  0  0  0  0  0
  -11.5591   16.2679   70.7105 H   0  0  0  0  0  0  0  0  0  0  0  0
   -8.9995   11.7766   66.2055 H   0  0  0  0  0  0  0  0  0  0  0  0
  -12.6983   13.3188   64.6251 H   0  0  0  0  0  0  0  0  0  0  0  0
   -9.4050   12.9730   68.3223 H   0  0  0  0  0  0  0  0  0  0  0  0
  -13.1020   14.5184   66.7415 H   0  0  0  0  0  0  0  0  0  0  0  0
  -13.2510   16.1688   74.6428 H   0  0  0  0  0  0  0  0  0  0  0  0
  -13.6308   12.8380   72.2589 H   0  0  0  0  0  0  0  0  0  0  0  0
  -11.5187    8.4665   73.4473 H   0  0  0  0  0  0  0  0  0  0  0  0
  -11.7404    6.8064   72.8537 H   0  0  0  0  0  0  0  0  0  0  0  0
  -13.6799    9.6692   70.4899 H   0  0  0  0  0  0  0  0  0  0  0  0
  -12.9562   10.4203   71.9364 H   0  0  0  0  0  0  0  0  0  0  0  0
  -13.6299    7.4648   71.4530 H   0  0  0  0  0  0  0  0  0  0  0  0
   -9.9213    8.5601   71.7227 H   0  0  0  0  0  0  0  0  0  0  0  0
  -11.0158   10.7395   64.0361 H   0  0  0  0  0  0  0  0  0  0  0  0
  -11.0176   12.2810   63.1443 H   0  0  0  0  0  0  0  0  0  0  0  0
   -9.5042   11.6487   63.7903 H   0  0  0  0  0  0  0  0  0  0  0  0
  -11.7278    6.7439   70.0620 H   0  0  0  0  0  0  0  0  0  0  0  0
  -10.2414    6.2481   70.8938 H   0  0  0  0  0  0  0  0  0  0  0  0
  -10.1621    7.4007   69.5473 H   0  0  0  0  0  0  0  0  0  0  0  0
  -12.0841   15.4757   68.7315 H   0  0  0  0  0  0  0  0  0  0  0  0
  -10.5719   14.8988   69.3888 H   0  0  0  0  0  0  0  0  0  0  0  0
  -13.2894   13.4593   69.5635 H   0  0  0  0  0  0  0  0  0  0  0  0
  -10.9937   12.3990   71.0196 H   0  0  0  0  0  0  0  0  0  0  0  0
  -14.1858    9.4682   73.4530 H   0  0  0  0  0  0  0  0  0  0  0  0
  -13.8133    7.9674   74.0539 H   0  0  0  0  0  0  0  0  0  0  0  0
  -15.0712    8.1450   72.9867 H   0  0  0  0  0  0  0  0  0  0  0  0
  1  2  1  0  0  0  0
  1  7  2  0  0  0  0
  2 11  2  0  0  0  0
  3  5  1  0  0  0  0
  3  9  2  0  0  0  0
  4  6  2  0  0  0  0
  4  9  1  0  0  0  0
  5 10  2  0  0  0  0
  6 10  1  0  0  0  0
  7 22  1  0  0  0  0
  8 11  1  0  0  0  0
  8 22  2  0  0  0  0
  9 18  1  0  0  0  0
 10 20  1  0  0  0  0
 11 21  1  0  0  0  0
 12 13  1  0  0  0  0
 12 23  1  0  0  0  0
 12 26  2  0  0  0  0
 13 24  1  0  0  0  0
 13 27  2  0  0  0  0
 14 16  1  0  0  0  0
 14 17  1  0  0  0  0
 15 16  1  0  0  0  0
 15 23  1  0  0  0  0
 16 25  1  6  0  0  0
 17 19  1  1  0  0  0
 17 23  1  0  0  0  0
 20 21  1  1  0  0  0
 21 24  1  0  0  0  0
  1 28  1  0  0  0  0
  2 29  1  0  0  0  0
  3 30  1  0  0  0  0
  4 31  1  0  0  0  0
  5 32  1  0  0  0  0
  6 33  1  0  0  0  0
  7 34  1  0  0  0  0
  8 35  1  0  0  0  0
 14 36  1  0  0  0  0
 14 37  1  0  0  0  0
 15 38  1  0  0  0  0
 15 39  1  0  0  0  0
 16 40  1  0  0  0  0
 17 41  1  0  0  0  0
 18 42  1  0  0  0  0
 18 43  1  0  0  0  0
 18 44  1  0  0  0  0
 19 45  1  0  0  0  0
 19 46  1  0  0  0  0
 19 47  1  0  0  0  0
 20 48  1  0  0  0  0
 20 49  1  0  0  0  0
 21 50  1  0  0  0  0
 24 51  1  0  0  0  0
 25 52  1  0  0  0  0
 25 53  1  0  0  0  0
 25 54  1  0  0  0  0
M  CHG  1  25   1
M  END
>  <idnumber>
Z2861292466

>  <Chemgauss4>
-13.9697799682617

>  <Hetero-Bemis-Murcko>
c1ccc(cc1)CC(c2cccnc2)NCCN3CCCC3

>  <Hetero-Bemis-Murcko>
c1ccc(cc1)CC(c2cccnc2)NCCN3CCCC3

>  <MW>
366.465

>  <HBD>
2

>  <HBA>
4

>  <RotBonds>
4

>  <XLogP>
1.65499973297119

>  <sLogP>
1.738

>  <TPSA>
89.9400024414062

>  <FSP3>
0.381

>  <QED>
0.807

$$$$
Z2039355530
  -OEChem-04242015583D

 54 57  0     1  0  0  0  0  0999 V2000
  -12.9712   15.7452   73.6259 C   0  0  0  0  0  0  0  0  0  0  0  0
  -13.8109   14.7173   73.1971 C   0  0  0  0  0  0  0  0  0  0  0  0
  -11.8907   16.1384   72.8361 C   0  0  0  0  0  0  0  0  0  0  0  0
  -13.5701   14.0825   71.9786 C   0  0  0  0  0  0  0  0  0  0  0  0
  -11.6499   15.5036   71.6177 C   0  0  0  0  0  0  0  0  0  0  0  0
  -11.1324    5.1715   72.8241 C   0  0  0  0  0  0  0  0  0  0  0  0
  -12.5930   13.7445   65.4176 C   0  0  0  0  0  0  0  0  0  0  0  0
  -11.3006   13.3012   65.4236 C   0  0  0  0  0  0  0  0  0  0  0  0
  -10.2896    7.0094   73.9703 C   0  0  0  0  0  0  0  0  0  0  0  0
  -10.9677    6.5865   72.8483 C   0  0  0  0  0  0  0  0  0  0  0  0
  -12.4896   14.4756   71.1889 C   0  0  0  0  0  0  0  0  0  0  0  0
  -10.5736    4.5666   73.9286 C   0  0  0  0  0  0  0  0  0  0  0  0
  -11.7196   14.2115   67.3974 C   0  0  0  0  0  0  0  0  0  0  0  0
  -10.5934   10.4131   69.6208 C   0  0  0  0  0  0  0  0  0  0  0  0
  -11.5267   11.4980   69.2285 C   0  0  0  0  0  0  0  0  0  0  0  0
  -12.4655    8.6102   72.2101 C   0  0  0  0  0  0  0  0  0  0  0  0
  -12.4392    9.5996   71.0558 C   0  0  0  0  0  0  0  0  0  0  0  0
  -10.3919    8.3424   71.0629 C   0  0  0  0  0  0  0  0  0  0  0  0
  -11.4784    7.5145   71.7676 C   0  0  1  0  0  0  0  0  0  0  0  0
  -10.5345    3.1280   74.2692 C   0  0  0  0  0  0  0  0  0  0  0  0
  -11.5569   14.7049   68.8171 C   0  0  0  0  0  0  0  0  0  0  0  0
  -12.2266   13.7845   69.8618 C   0  0  1  0  0  0  0  0  0  0  0  0
  -12.8254   14.3028   66.6515 N   0  0  0  0  0  0  0  0  0  0  0  0
  -10.7844   13.6034   66.6606 N   0  3  0  0  0  0  0  0  0  0  0  0
  -11.0937    9.5006   70.5218 N   0  0  0  0  0  0  0  0  0  0  0  0
  -11.4205   12.5995   70.0481 N   0  0  0  0  0  0  0  0  0  0  0  0
   -9.4844   10.4324   69.1059 O   0  0  0  0  0  0  0  0  0  0  0  0
  -12.2720   11.3526   68.2719 O   0  0  0  0  0  0  0  0  0  0  0  0
   -9.8545    5.7031   74.9885 S   0  0  0  0  0  0  0  0  0  0  0  0
  -13.1596   16.2403   74.5740 H   0  0  0  0  0  0  0  0  0  0  0  0
  -14.6529   14.4118   73.8114 H   0  0  0  0  0  0  0  0  0  0  0  0
  -11.2373   16.9394   73.1692 H   0  0  0  0  0  0  0  0  0  0  0  0
  -14.2296   13.2825   71.6526 H   0  0  0  0  0  0  0  0  0  0  0  0
  -10.8056   15.8165   71.0091 H   0  0  0  0  0  0  0  0  0  0  0  0
  -11.6353    4.6239   72.0365 H   0  0  0  0  0  0  0  0  0  0  0  0
  -13.3989   13.7479   64.7110 H   0  0  0  0  0  0  0  0  0  0  0  0
  -10.6569   12.8075   64.7231 H   0  0  0  0  0  0  0  0  0  0  0  0
  -10.0268    8.0217   74.2450 H   0  0  0  0  0  0  0  0  0  0  0  0
  -12.1245    9.0968   73.1330 H   0  0  0  0  0  0  0  0  0  0  0  0
  -13.4689    8.2114   72.3903 H   0  0  0  0  0  0  0  0  0  0  0  0
  -13.1358    9.3097   70.2614 H   0  0  0  0  0  0  0  0  0  0  0  0
  -12.6629   10.6258   71.3626 H   0  0  0  0  0  0  0  0  0  0  0  0
   -9.6266    8.7088   71.7575 H   0  0  0  0  0  0  0  0  0  0  0  0
   -9.8959    7.7832   70.2627 H   0  0  0  0  0  0  0  0  0  0  0  0
  -11.9841    6.8768   70.9921 H   0  0  0  0  0  0  0  0  0  0  0  0
   -9.6324    2.6494   73.8569 H   0  0  0  0  0  0  0  0  0  0  0  0
  -10.5357    2.9636   75.3592 H   0  0  0  0  0  0  0  0  0  0  0  0
  -11.4122    2.5888   73.8764 H   0  0  0  0  0  0  0  0  0  0  0  0
  -11.9961   15.7110   68.8711 H   0  0  0  0  0  0  0  0  0  0  0  0
  -10.4904   14.8416   69.0398 H   0  0  0  0  0  0  0  0  0  0  0  0
  -13.1867   13.4405   69.4561 H   0  0  0  0  0  0  0  0  0  0  0  0
  -13.7021   14.7204   66.9515 H   0  0  0  0  0  0  0  0  0  0  0  0
   -9.8381   13.3966   66.9686 H   0  0  0  0  0  0  0  0  0  0  0  0
  -10.7508   12.5783   70.8117 H   0  0  0  0  0  0  0  0  0  0  0  0
  1  2  2  0  0  0  0
  1  3  1  0  0  0  0
  2  4  1  0  0  0  0
  3  5  2  0  0  0  0
  4 11  2  0  0  0  0
  5 11  1  0  0  0  0
  6 10  1  0  0  0  0
  6 12  2  0  0  0  0
  7  8  2  0  0  0  0
  7 23  1  0  0  0  0
  8 24  1  0  0  0  0
  9 10  2  0  0  0  0
  9 29  1  0  0  0  0
 10 19  1  6  0  0  0
 11 22  1  0  0  0  0
 12 20  1  0  0  0  0
 12 29  1  0  0  0  0
 13 21  1  0  0  0  0
 13 23  1  0  0  0  0
 13 24  2  0  0  0  0
 14 15  1  0  0  0  0
 14 25  1  0  0  0  0
 14 27  2  0  0  0  0
 15 26  1  0  0  0  0
 15 28  2  0  0  0  0
 16 17  1  0  0  0  0
 16 19  1  0  0  0  0
 17 25  1  0  0  0  0
 18 19  1  0  0  0  0
 18 25  1  0  0  0  0
 21 22  1  6  0  0  0
 22 26  1  0  0  0  0
  1 30  1  0  0  0  0
  2 31  1  0  0  0  0
  3 32  1  0  0  0  0
  4 33  1  0  0  0  0
  5 34  1  0  0  0  0
  6 35  1  0  0  0  0
  7 36  1  0  0  0  0
  8 37  1  0  0  0  0
  9 38  1  0  0  0  0
 16 39  1  0  0  0  0
 16 40  1  0  0  0  0
 17 41  1  0  0  0  0
 17 42  1  0  0  0  0
 18 43  1  0  0  0  0
 18 44  1  0  0  0  0
 19 45  1  0  0  0  0
 20 46  1  0  0  0  0
 20 47  1  0  0  0  0
 20 48  1  0  0  0  0
 21 49  1  0  0  0  0
 21 50  1  0  0  0  0
 22 51  1  0  0  0  0
 23 52  1  0  0  0  0
 24 53  1  0  0  0  0
 26 54  1  0  0  0  0
M  CHG  1  24   1
M  END
>  <idnumber>
Z2039355530

>  <Chemgauss4>
-13.9692277908325

>  <Hetero-Bemis-Murcko>
c1ccc(cc1)C(Cc2[nH]cc[nH+]2)NCCN3CCC(C3)c4ccsc4

>  <Hetero-Bemis-Murcko>
c1ccc(cc1)C(Cc2[nH]cc[nH+]2)NCCN3CCC(C3)c4ccsc4

>  <MW>
408.527

>  <HBD>
2

>  <HBA>
4

>  <RotBonds>
5

>  <XLogP>
2.61199975013733

>  <sLogP>
3.196

>  <TPSA>
79.3399963378906

>  <FSP3>
0.318

>  <QED>
0.637

$$$$
Z3840338426
  -OEChem-04242015583D

 49 51  0     1  0  0  0  0  0999 V2000
  -10.8107   12.8544   66.4898 C   0  0  0  0  0  0  0  0  0  0  0  0
  -12.8124   14.1662   66.1590 C   0  0  0  0  0  0  0  0  0  0  0  0
  -13.4496   14.3900   71.5322 C   0  0  0  0  0  0  0  0  0  0  0  0
  -11.4816   15.6629   70.9456 C   0  0  0  0  0  0  0  0  0  0  0  0
  -11.0126   12.2352   65.2564 C   0  0  0  0  0  0  0  0  0  0  0  0
  -13.0143   13.5470   64.9255 C   0  0  0  0  0  0  0  0  0  0  0  0
  -13.6338   15.1933   72.6574 C   0  0  0  0  0  0  0  0  0  0  0  0
  -11.6659   16.4663   72.0709 C   0  0  0  0  0  0  0  0  0  0  0  0
  -11.7107   13.8198   66.9412 C   0  0  0  0  0  0  0  0  0  0  0  0
  -12.3734   14.6247   70.6762 C   0  0  0  0  0  0  0  0  0  0  0  0
  -12.1143   12.5815   64.4742 C   0  0  0  0  0  0  0  0  0  0  0  0
  -12.7420   16.2315   72.9268 C   0  0  0  0  0  0  0  0  0  0  0  0
  -10.6862   10.3091   69.6356 C   0  0  0  0  0  0  0  0  0  0  0  0
  -11.5834   11.3712   69.1185 C   0  0  0  0  0  0  0  0  0  0  0  0
  -11.6271    7.7971   72.1863 C   0  0  0  0  0  0  0  0  0  0  0  0
  -10.5353    8.4431   71.3410 C   0  0  0  0  0  0  0  0  0  0  0  0
  -12.5403    9.7714   71.1940 C   0  0  0  0  0  0  0  0  0  0  0  0
  -12.5446    8.9753   72.4868 C   0  0  1  0  0  0  0  0  0  0  0  0
  -11.4921   14.4919   68.2776 C   0  0  0  0  0  0  0  0  0  0  0  0
  -12.1726   13.7506   69.4500 C   0  0  1  0  0  0  0  0  0  0  0  0
  -11.2031    9.5506   70.6609 N   0  0  0  0  0  0  0  0  0  0  0  0
  -11.4113   12.5670   69.7793 N   0  0  0  0  0  0  0  0  0  0  0  0
  -13.9012    8.5236   72.8374 N   0  3  0  0  0  0  0  0  0  0  0  0
   -9.5906   10.2094   69.1020 O   0  0  0  0  0  0  0  0  0  0  0  0
  -12.3578   11.1316   68.2050 O   0  0  0  0  0  0  0  0  0  0  0  0
  -12.3068   11.9889   63.2884 F   0  0  0  0  0  0  0  0  0  0  0  0
  -12.9204   17.0048   74.0059 F   0  0  0  0  0  0  0  0  0  0  0  0
   -9.9498   12.5773   67.0926 H   0  0  0  0  0  0  0  0  0  0  0  0
  -13.5187   14.9175   66.5023 H   0  0  0  0  0  0  0  0  0  0  0  0
  -14.1492   13.5830   71.3310 H   0  0  0  0  0  0  0  0  0  0  0  0
  -10.6405   15.8534   70.2842 H   0  0  0  0  0  0  0  0  0  0  0  0
  -10.3118   11.4841   64.9046 H   0  0  0  0  0  0  0  0  0  0  0  0
  -13.8721   13.8160   64.3164 H   0  0  0  0  0  0  0  0  0  0  0  0
  -14.4718   15.0111   73.3234 H   0  0  0  0  0  0  0  0  0  0  0  0
  -10.9716   17.2743   72.2812 H   0  0  0  0  0  0  0  0  0  0  0  0
  -12.1433    7.0293   71.5967 H   0  0  0  0  0  0  0  0  0  0  0  0
  -11.2300    7.3320   73.0932 H   0  0  0  0  0  0  0  0  0  0  0  0
   -9.7414    8.8648   71.9671 H   0  0  0  0  0  0  0  0  0  0  0  0
  -10.0920    7.7510   70.6192 H   0  0  0  0  0  0  0  0  0  0  0  0
  -13.2516    9.3868   70.4538 H   0  0  0  0  0  0  0  0  0  0  0  0
  -12.7266   10.8397   71.3405 H   0  0  0  0  0  0  0  0  0  0  0  0
  -12.1664    9.5708   73.3257 H   0  0  0  0  0  0  0  0  0  0  0  0
  -11.8880   15.5144   68.2035 H   0  0  0  0  0  0  0  0  0  0  0  0
  -10.4156   14.6100   68.4590 H   0  0  0  0  0  0  0  0  0  0  0  0
  -13.1558   13.3979   69.1133 H   0  0  0  0  0  0  0  0  0  0  0  0
  -10.7240   12.6191   70.5256 H   0  0  0  0  0  0  0  0  0  0  0  0
  -14.1113    7.6028   72.4273 H   0  0  0  0  0  0  0  0  0  0  0  0
  -14.6178    9.1809   72.4981 H   0  0  0  0  0  0  0  0  0  0  0  0
  -14.0203    8.4396   73.8569 H   0  0  0  0  0  0  0  0  0  0  0  0
  1  5  1  0  0  0  0
  1  9  2  0  0  0  0
  2  6  2  0  0  0  0
  2  9  1  0  0  0  0
  3  7  1  0  0  0  0
  3 10  2  0  0  0  0
  4  8  2  0  0  0  0
  4 10  1  0  0  0  0
  5 11  2  0  0  0  0
  6 11  1  0  0  0  0
  7 12  2  0  0  0  0
  8 12  1  0  0  0  0
  9 19  1  0  0  0  0
 10 20  1  0  0  0  0
 11 26  1  0  0  0  0
 12 27  1  0  0  0  0
 13 14  1  0  0  0  0
 13 21  1  0  0  0  0
 13 24  2  0  0  0  0
 14 22  1  0  0  0  0
 14 25  2  0  0  0  0
 15 16  1  0  0  0  0
 15 18  1  0  0  0  0
 16 21  1  0  0  0  0
 17 18  1  0  0  0  0
 17 21  1  0  0  0  0
 18 23  1  0  0  0  0
 19 20  1  6  0  0  0
 20 22  1  0  0  0  0
  1 28  1  0  0  0  0
  2 29  1  0  0  0  0
  3 30  1  0  0  0  0
  4 31  1  0  0  0  0
  5 32  1  0  0  0  0
  6 33  1  0  0  0  0
  7 34  1  0  0  0  0
  8 35  1  0  0  0  0
 15 36  1  0  0  0  0
 15 37  1  0  0  0  0
 16 38  1  0  0  0  0
 16 39  1  0  0  0  0
 17 40  1  0  0  0  0
 17 41  1  0  0  0  0
 18 42  1  1  0  0  0
 19 43  1  0  0  0  0
 19 44  1  0  0  0  0
 20 45  1  0  0  0  0
 22 46  1  0  0  0  0
 23 47  1  0  0  0  0
 23 48  1  0  0  0  0
 23 49  1  0  0  0  0
M  CHG  1  23   1
M  END
>  <idnumber>
Z3840338426

>  <Chemgauss4>
-13.9582500457764

>  <Hetero-Bemis-Murcko>
c1ccc(cc1)CC(c2ccccc2)NCCN3CCCC3

>  <Hetero-Bemis-Murcko>
c1ccc(cc1)CC(c2ccccc2)NCCN3CCCC3

>  <MW>
373.403

>  <HBD>
2

>  <HBA>
3

>  <RotBonds>
4

>  <XLogP>
1.94199967384338

>  <sLogP>
1.924

>  <TPSA>
77.0499954223633

>  <FSP3>
0.3

>  <QED>
0.804

$$$$
Z3840338390
  -OEChem-04242015583D

 49 51  0     1  0  0  0  0  0999 V2000
  -10.8107   12.8544   66.4898 C   0  0  0  0  0  0  0  0  0  0  0  0
  -12.8124   14.1662   66.1590 C   0  0  0  0  0  0  0  0  0  0  0  0
  -13.4496   14.3900   71.5322 C   0  0  0  0  0  0  0  0  0  0  0  0
  -11.4816   15.6629   70.9456 C   0  0  0  0  0  0  0  0  0  0  0  0
  -11.0126   12.2352   65.2564 C   0  0  0  0  0  0  0  0  0  0  0  0
  -13.0143   13.5470   64.9255 C   0  0  0  0  0  0  0  0  0  0  0  0
  -13.6338   15.1933   72.6574 C   0  0  0  0  0  0  0  0  0  0  0  0
  -11.6659   16.4663   72.0709 C   0  0  0  0  0  0  0  0  0  0  0  0
  -11.7107   13.8198   66.9412 C   0  0  0  0  0  0  0  0  0  0  0  0
  -12.3734   14.6247   70.6762 C   0  0  0  0  0  0  0  0  0  0  0  0
  -12.1143   12.5815   64.4742 C   0  0  0  0  0  0  0  0  0  0  0  0
  -12.7420   16.2315   72.9268 C   0  0  0  0  0  0  0  0  0  0  0  0
  -10.6862   10.3091   69.6356 C   0  0  0  0  0  0  0  0  0  0  0  0
  -11.5834   11.3712   69.1185 C   0  0  0  0  0  0  0  0  0  0  0  0
  -11.6271    7.7971   72.1863 C   0  0  0  0  0  0  0  0  0  0  0  0
  -10.5353    8.4431   71.3410 C   0  0  0  0  0  0  0  0  0  0  0  0
  -12.5403    9.7714   71.1940 C   0  0  0  0  0  0  0  0  0  0  0  0
  -12.5446    8.9753   72.4868 C   0  0  1  0  0  0  0  0  0  0  0  0
  -11.4921   14.4919   68.2776 C   0  0  0  0  0  0  0  0  0  0  0  0
  -12.1726   13.7506   69.4500 C   0  0  1  0  0  0  0  0  0  0  0  0
  -11.2031    9.5506   70.6609 N   0  0  0  0  0  0  0  0  0  0  0  0
  -11.4113   12.5670   69.7793 N   0  0  0  0  0  0  0  0  0  0  0  0
  -13.9012    8.5236   72.8374 N   0  3  0  0  0  0  0  0  0  0  0  0
   -9.5906   10.2094   69.1020 O   0  0  0  0  0  0  0  0  0  0  0  0
  -12.3578   11.1316   68.2050 O   0  0  0  0  0  0  0  0  0  0  0  0
  -12.3068   11.9889   63.2884 F   0  0  0  0  0  0  0  0  0  0  0  0
  -12.9204   17.0048   74.0059 F   0  0  0  0  0  0  0  0  0  0  0  0
   -9.9498   12.5773   67.0926 H   0  0  0  0  0  0  0  0  0  0  0  0
  -13.5187   14.9175   66.5023 H   0  0  0  0  0  0  0  0  0  0  0  0
  -14.1492   13.5830   71.3310 H   0  0  0  0  0  0  0  0  0  0  0  0
  -10.6405   15.8534   70.2842 H   0  0  0  0  0  0  0  0  0  0  0  0
  -10.3118   11.4841   64.9046 H   0  0  0  0  0  0  0  0  0  0  0  0
  -13.8721   13.8160   64.3164 H   0  0  0  0  0  0  0  0  0  0  0  0
  -14.4718   15.0111   73.3234 H   0  0  0  0  0  0  0  0  0  0  0  0
  -10.9716   17.2743   72.2812 H   0  0  0  0  0  0  0  0  0  0  0  0
  -12.1433    7.0293   71.5967 H   0  0  0  0  0  0  0  0  0  0  0  0
  -11.2300    7.3320   73.0932 H   0  0  0  0  0  0  0  0  0  0  0  0
   -9.7414    8.8648   71.9671 H   0  0  0  0  0  0  0  0  0  0  0  0
  -10.0920    7.7510   70.6192 H   0  0  0  0  0  0  0  0  0  0  0  0
  -13.2516    9.3868   70.4538 H   0  0  0  0  0  0  0  0  0  0  0  0
  -12.7266   10.8397   71.3405 H   0  0  0  0  0  0  0  0  0  0  0  0
  -12.1664    9.5708   73.3257 H   0  0  0  0  0  0  0  0  0  0  0  0
  -11.8880   15.5144   68.2035 H   0  0  0  0  0  0  0  0  0  0  0  0
  -10.4156   14.6100   68.4590 H   0  0  0  0  0  0  0  0  0  0  0  0
  -13.1558   13.3979   69.1133 H   0  0  0  0  0  0  0  0  0  0  0  0
  -10.7240   12.6191   70.5256 H   0  0  0  0  0  0  0  0  0  0  0  0
  -14.1113    7.6028   72.4273 H   0  0  0  0  0  0  0  0  0  0  0  0
  -14.6178    9.1809   72.4981 H   0  0  0  0  0  0  0  0  0  0  0  0
  -14.0203    8.4396   73.8569 H   0  0  0  0  0  0  0  0  0  0  0  0
  1  5  1  0  0  0  0
  1  9  2  0  0  0  0
  2  6  2  0  0  0  0
  2  9  1  0  0  0  0
  3  7  1  0  0  0  0
  3 10  2  0  0  0  0
  4  8  2  0  0  0  0
  4 10  1  0  0  0  0
  5 11  2  0  0  0  0
  6 11  1  0  0  0  0
  7 12  2  0  0  0  0
  8 12  1  0  0  0  0
  9 19  1  0  0  0  0
 10 20  1  0  0  0  0
 11 26  1  0  0  0  0
 12 27  1  0  0  0  0
 13 14  1  0  0  0  0
 13 21  1  0  0  0  0
 13 24  2  0  0  0  0
 14 22  1  0  0  0  0
 14 25  2  0  0  0  0
 15 16  1  0  0  0  0
 15 18  1  0  0  0  0
 16 21  1  0  0  0  0
 17 18  1  0  0  0  0
 17 21  1  0  0  0  0
 18 23  1  6  0  0  0
 19 20  1  6  0  0  0
 20 22  1  0  0  0  0
  1 28  1  0  0  0  0
  2 29  1  0  0  0  0
  3 30  1  0  0  0  0
  4 31  1  0  0  0  0
  5 32  1  0  0  0  0
  6 33  1  0  0  0  0
  7 34  1  0  0  0  0
  8 35  1  0  0  0  0
 15 36  1  0  0  0  0
 15 37  1  0  0  0  0
 16 38  1  0  0  0  0
 16 39  1  0  0  0  0
 17 40  1  0  0  0  0
 17 41  1  0  0  0  0
 18 42  1  0  0  0  0
 19 43  1  0  0  0  0
 19 44  1  0  0  0  0
 20 45  1  0  0  0  0
 22 46  1  0  0  0  0
 23 47  1  0  0  0  0
 23 48  1  0  0  0  0
 23 49  1  0  0  0  0
M  CHG  1  23   1
M  END
>  <idnumber>
Z3840338390

>  <Chemgauss4>
-13.9582500457764

>  <Hetero-Bemis-Murcko>
c1ccc(cc1)CC(c2ccccc2)NCCN3CCCC3

>  <Hetero-Bemis-Murcko>
c1ccc(cc1)CC(c2ccccc2)NCCN3CCCC3

>  <MW>
373.403

>  <HBD>
2

>  <HBA>
3

>  <RotBonds>
4

>  <XLogP>
1.94199967384338

>  <sLogP>
1.924

>  <TPSA>
77.0499954223633

>  <FSP3>
0.3

>  <QED>
0.804

$$$$
Z2365015966
  -OEChem-04242015583D

 52 54  0     1  0  0  0  0  0999 V2000
  -13.0675   16.1185   73.7628 C   0  0  0  0  0  0  0  0  0  0  0  0
  -11.8628   15.4697   73.4918 C   0  0  0  0  0  0  0  0  0  0  0  0
  -14.0923   16.1104   72.8165 C   0  0  0  0  0  0  0  0  0  0  0  0
  -11.6829   14.8129   72.2745 C   0  0  0  0  0  0  0  0  0  0  0  0
  -13.9124   15.4536   71.5992 C   0  0  0  0  0  0  0  0  0  0  0  0
  -10.5124   13.6381   67.3153 C   0  0  0  0  0  0  0  0  0  0  0  0
  -12.7428   14.2715   66.6363 C   0  0  0  0  0  0  0  0  0  0  0  0
  -10.3287   12.9807   66.0989 C   0  0  0  0  0  0  0  0  0  0  0  0
  -12.5592   13.6141   65.4198 C   0  0  0  0  0  0  0  0  0  0  0  0
  -11.7195   14.2835   67.5841 C   0  0  0  0  0  0  0  0  0  0  0  0
  -12.7077   14.8048   71.3281 C   0  0  0  0  0  0  0  0  0  0  0  0
  -11.3521   12.9688   65.1511 C   0  0  0  0  0  0  0  0  0  0  0  0
  -10.8460   10.7370   69.7330 C   0  0  0  0  0  0  0  0  0  0  0  0
  -11.8164   11.8004   69.3747 C   0  0  0  0  0  0  0  0  0  0  0  0
  -10.5288    8.6975   71.2032 C   0  0  0  0  0  0  0  0  0  0  0  0
  -12.6037    9.9237   71.2838 C   0  0  0  0  0  0  0  0  0  0  0  0
  -11.5634    7.8875   71.9887 C   0  0  2  0  0  0  0  0  0  0  0  0
  -12.5152    8.9833   72.4739 C   0  0  2  0  0  0  0  0  0  0  0  0
  -10.9502    7.0632   73.1078 C   0  0  0  0  0  0  0  0  0  0  0  0
  -11.9183   14.9975   68.9016 C   0  0  0  0  0  0  0  0  0  0  0  0
  -12.5123   14.0899   70.0020 C   0  0  1  0  0  0  0  0  0  0  0  0
  -11.2804    9.8378   70.6800 N   0  0  0  0  0  0  0  0  0  0  0  0
  -11.6791   12.9201   70.1643 N   0  0  0  0  0  0  0  0  0  0  0  0
  -13.8395    8.4401   72.8245 N   0  3  0  0  0  0  0  0  0  0  0  0
   -9.7691   10.7602   69.1541 O   0  0  0  0  0  0  0  0  0  0  0  0
  -12.6141   11.6251   68.4664 O   0  0  0  0  0  0  0  0  0  0  0  0
  -11.1252   12.1579   63.6506 Cl  0  0  0  0  0  0  0  0  0  0  0  0
  -13.2079   16.6287   74.7113 H   0  0  0  0  0  0  0  0  0  0  0  0
  -11.0652   15.4749   74.2289 H   0  0  0  0  0  0  0  0  0  0  0  0
  -15.0307   16.6145   73.0276 H   0  0  0  0  0  0  0  0  0  0  0  0
  -10.7408   14.3102   72.0719 H   0  0  0  0  0  0  0  0  0  0  0  0
  -14.7163   15.4527   70.8679 H   0  0  0  0  0  0  0  0  0  0  0  0
   -9.7103   13.6428   68.0487 H   0  0  0  0  0  0  0  0  0  0  0  0
  -13.6862   14.7721   66.8379 H   0  0  0  0  0  0  0  0  0  0  0  0
   -9.3827   12.4825   65.9033 H   0  0  0  0  0  0  0  0  0  0  0  0
  -13.3655   13.6131   64.6909 H   0  0  0  0  0  0  0  0  0  0  0  0
   -9.7312    9.0902   71.8440 H   0  0  0  0  0  0  0  0  0  0  0  0
  -10.0791    8.1251   70.3860 H   0  0  0  0  0  0  0  0  0  0  0  0
  -13.3264    9.5904   70.5298 H   0  0  0  0  0  0  0  0  0  0  0  0
  -12.8345   10.9565   71.5623 H   0  0  0  0  0  0  0  0  0  0  0  0
  -12.0839    7.2169   71.2910 H   0  0  0  0  0  0  0  0  0  0  0  0
  -12.1287    9.5004   73.3602 H   0  0  0  0  0  0  0  0  0  0  0  0
  -10.4278    7.7130   73.8123 H   0  0  0  0  0  0  0  0  0  0  0  0
  -10.2374    6.3444   72.6997 H   0  0  0  0  0  0  0  0  0  0  0  0
  -11.7287    6.5183   73.6450 H   0  0  0  0  0  0  0  0  0  0  0  0
  -12.5885   15.8493   68.7196 H   0  0  0  0  0  0  0  0  0  0  0  0
  -10.9681   15.4405   69.2279 H   0  0  0  0  0  0  0  0  0  0  0  0
  -13.4891   13.7244   69.6602 H   0  0  0  0  0  0  0  0  0  0  0  0
  -10.9658   12.9241   70.8877 H   0  0  0  0  0  0  0  0  0  0  0  0
  -14.5694    8.7854   72.1865 H   0  0  0  0  0  0  0  0  0  0  0  0
  -14.1145    8.7067   73.7799 H   0  0  0  0  0  0  0  0  0  0  0  0
  -13.8497    7.4120   72.7766 H   0  0  0  0  0  0  0  0  0  0  0  0
  1  2  2  0  0  0  0
  1  3  1  0  0  0  0
  2  4  1  0  0  0  0
  3  5  2  0  0  0  0
  4 11  2  0  0  0  0
  5 11  1  0  0  0  0
  6  8  1  0  0  0  0
  6 10  2  0  0  0  0
  7  9  2  0  0  0  0
  7 10  1  0  0  0  0
  8 12  2  0  0  0  0
  9 12  1  0  0  0  0
 10 20  1  0  0  0  0
 11 21  1  0  0  0  0
 12 27  1  0  0  0  0
 13 14  1  0  0  0  0
 13 22  1  0  0  0  0
 13 25  2  0  0  0  0
 14 23  1  0  0  0  0
 14 26  2  0  0  0  0
 15 17  1  0  0  0  0
 15 22  1  0  0  0  0
 16 18  1  0  0  0  0
 16 22  1  0  0  0  0
 17 18  1  0  0  0  0
 17 19  1  1  0  0  0
 18 24  1  1  0  0  0
 20 21  1  6  0  0  0
 21 23  1  0  0  0  0
  1 28  1  0  0  0  0
  2 29  1  0  0  0  0
  3 30  1  0  0  0  0
  4 31  1  0  0  0  0
  5 32  1  0  0  0  0
  6 33  1  0  0  0  0
  7 34  1  0  0  0  0
  8 35  1  0  0  0  0
  9 36  1  0  0  0  0
 15 37  1  0  0  0  0
 15 38  1  0  0  0  0
 16 39  1  0  0  0  0
 16 40  1  0  0  0  0
 17 41  1  0  0  0  0
 18 42  1  0  0  0  0
 19 43  1  0  0  0  0
 19 44  1  0  0  0  0
 19 45  1  0  0  0  0
 20 46  1  0  0  0  0
 20 47  1  0  0  0  0
 21 48  1  0  0  0  0
 23 49  1  0  0  0  0
 24 50  1  0  0  0  0
 24 51  1  0  0  0  0
 24 52  1  0  0  0  0
M  CHG  1  24   1
M  END
>  <idnumber>
Z2365015966

>  <Chemgauss4>
-13.9535074234009

>  <Hetero-Bemis-Murcko>
c1ccc(cc1)CC(c2ccccc2)NCCN3CCCC3

>  <Hetero-Bemis-Murcko>
c1ccc(cc1)CC(c2ccccc2)NCCN3CCCC3

>  <MW>
385.895

>  <HBD>
2

>  <HBA>
3

>  <RotBonds>
4

>  <XLogP>
2.54199981689453

>  <sLogP>
2.546

>  <TPSA>
77.0499954223633

>  <FSP3>
0.333

>  <QED>
0.794

$$$$
Z2366882425
  -OEChem-04242015583D

 51 53  0     1  0  0  0  0  0999 V2000
  -12.8270   14.9144   73.5412 C   0  0  0  0  0  0  0  0  0  0  0  0
  -12.3046   16.2029   73.5541 C   0  0  0  0  0  0  0  0  0  0  0  0
  -10.4176   13.1853   67.1851 C   0  0  0  0  0  0  0  0  0  0  0  0
  -12.5818   14.0711   66.5780 C   0  0  0  0  0  0  0  0  0  0  0  0
  -10.3762   12.4673   65.9900 C   0  0  0  0  0  0  0  0  0  0  0  0
  -12.5404   13.3531   65.3828 C   0  0  0  0  0  0  0  0  0  0  0  0
  -12.8051   14.1731   72.3650 C   0  0  0  0  0  0  0  0  0  0  0  0
  -11.7760   16.7003   72.3739 C   0  0  0  0  0  0  0  0  0  0  0  0
  -11.5205   13.9871   67.4792 C   0  0  0  0  0  0  0  0  0  0  0  0
  -11.4376   12.5512   65.0888 C   0  0  0  0  0  0  0  0  0  0  0  0
  -12.2543   14.7615   71.2379 C   0  0  0  0  0  0  0  0  0  0  0  0
  -10.9938   10.4376   69.7322 C   0  0  0  0  0  0  0  0  0  0  0  0
  -11.8397   11.6012   69.3730 C   0  0  0  0  0  0  0  0  0  0  0  0
  -10.8597    8.4436   71.2874 C   0  0  0  0  0  0  0  0  0  0  0  0
  -12.7645    9.9193   71.3917 C   0  0  0  0  0  0  0  0  0  0  0  0
  -11.6906    8.1084   72.5288 C   0  0  1  0  0  0  0  0  0  0  0  0
  -13.0737    8.6280   72.1301 C   0  0  1  0  0  0  0  0  0  0  0  0
  -11.6653    6.6310   72.8820 C   0  0  0  0  0  0  0  0  0  0  0  0
  -11.5650   14.7667   68.7736 C   0  0  0  0  0  0  0  0  0  0  0  0
  -12.2137   13.9811   69.9351 C   0  0  1  0  0  0  0  0  0  0  0  0
  -11.7373   16.0103   71.2120 N   0  0  0  0  0  0  0  0  0  0  0  0
  -11.4909    9.6439   70.7401 N   0  0  0  0  0  0  0  0  0  0  0  0
  -11.5260   12.7219   70.1092 N   0  0  0  0  0  0  0  0  0  0  0  0
  -13.9237    8.8768   73.3079 N   0  3  0  0  0  0  0  0  0  0  0  0
   -9.9517   10.3031   69.1075 O   0  0  0  0  0  0  0  0  0  0  0  0
  -12.6959   11.4961   68.5082 O   0  0  0  0  0  0  0  0  0  0  0  0
  -11.3861   11.6656   63.6145 Cl  0  0  0  0  0  0  0  0  0  0  0  0
  -13.2503   14.4888   74.4460 H   0  0  0  0  0  0  0  0  0  0  0  0
  -12.3110   16.7989   74.4595 H   0  0  0  0  0  0  0  0  0  0  0  0
   -9.5868   13.1144   67.8822 H   0  0  0  0  0  0  0  0  0  0  0  0
  -13.4446   14.6938   66.7995 H   0  0  0  0  0  0  0  0  0  0  0  0
   -9.5102   11.8469   65.7742 H   0  0  0  0  0  0  0  0  0  0  0  0
  -13.3748   13.4282   64.6902 H   0  0  0  0  0  0  0  0  0  0  0  0
  -13.2094   13.1669   72.3417 H   0  0  0  0  0  0  0  0  0  0  0  0
  -11.3561   17.6999   72.3313 H   0  0  0  0  0  0  0  0  0  0  0  0
   -9.8087    8.6352   71.5243 H   0  0  0  0  0  0  0  0  0  0  0  0
  -10.9157    7.6603   70.5231 H   0  0  0  0  0  0  0  0  0  0  0  0
  -13.5254   10.1910   70.6536 H   0  0  0  0  0  0  0  0  0  0  0  0
  -12.6064   10.7688   72.0664 H   0  0  0  0  0  0  0  0  0  0  0  0
  -11.2993    8.6880   73.3763 H   0  0  0  0  0  0  0  0  0  0  0  0
  -13.6084    7.9205   71.4852 H   0  0  0  0  0  0  0  0  0  0  0  0
  -12.0510    6.0376   72.0509 H   0  0  0  0  0  0  0  0  0  0  0  0
  -12.2824    6.4428   73.7625 H   0  0  0  0  0  0  0  0  0  0  0  0
  -10.6435    6.3116   73.0956 H   0  0  0  0  0  0  0  0  0  0  0  0
  -12.1318   15.6895   68.5859 H   0  0  0  0  0  0  0  0  0  0  0  0
  -10.5524   15.0973   69.0399 H   0  0  0  0  0  0  0  0  0  0  0  0
  -13.2439   13.7302   69.6514 H   0  0  0  0  0  0  0  0  0  0  0  0
  -10.7837   12.6613   70.8002 H   0  0  0  0  0  0  0  0  0  0  0  0
  -14.8505    9.2315   73.0354 H   0  0  0  0  0  0  0  0  0  0  0  0
  -13.5003    9.5729   73.9369 H   0  0  0  0  0  0  0  0  0  0  0  0
  -14.0712    8.0172   73.8543 H   0  0  0  0  0  0  0  0  0  0  0  0
  1  2  2  0  0  0  0
  1  7  1  0  0  0  0
  2  8  1  0  0  0  0
  3  5  1  0  0  0  0
  3  9  2  0  0  0  0
  4  6  2  0  0  0  0
  4  9  1  0  0  0  0
  5 10  2  0  0  0  0
  6 10  1  0  0  0  0
  7 11  2  0  0  0  0
  8 21  2  0  0  0  0
  9 19  1  0  0  0  0
 10 27  1  0  0  0  0
 11 20  1  0  0  0  0
 11 21  1  0  0  0  0
 12 13  1  0  0  0  0
 12 22  1  0  0  0  0
 12 25  2  0  0  0  0
 13 23  1  0  0  0  0
 13 26  2  0  0  0  0
 14 16  1  0  0  0  0
 14 22  1  0  0  0  0
 15 17  1  0  0  0  0
 15 22  1  0  0  0  0
 16 17  1  0  0  0  0
 16 18  1  6  0  0  0
 17 24  1  6  0  0  0
 19 20  1  6  0  0  0
 20 23  1  0  0  0  0
  1 28  1  0  0  0  0
  2 29  1  0  0  0  0
  3 30  1  0  0  0  0
  4 31  1  0  0  0  0
  5 32  1  0  0  0  0
  6 33  1  0  0  0  0
  7 34  1  0  0  0  0
  8 35  1  0  0  0  0
 14 36  1  0  0  0  0
 14 37  1  0  0  0  0
 15 38  1  0  0  0  0
 15 39  1  0  0  0  0
 16 40  1  0  0  0  0
 17 41  1  0  0  0  0
 18 42  1  0  0  0  0
 18 43  1  0  0  0  0
 18 44  1  0  0  0  0
 19 45  1  0  0  0  0
 19 46  1  0  0  0  0
 20 47  1  0  0  0  0
 23 48  1  0  0  0  0
 24 49  1  0  0  0  0
 24 50  1  0  0  0  0
 24 51  1  0  0  0  0
M  CHG  1  24   1
M  END
>  <idnumber>
Z2366882425

>  <Chemgauss4>
-13.9487400054932

>  <Hetero-Bemis-Murcko>
c1ccc(cc1)CC(c2ccccn2)NCCN3CCCC3

>  <Hetero-Bemis-Murcko>
c1ccc(cc1)CC(c2ccccn2)NCCN3CCCC3

>  <MW>
386.883

>  <HBD>
2

>  <HBA>
4

>  <RotBonds>
4

>  <XLogP>
1.29499971866608

>  <sLogP>
1.941

>  <TPSA>
89.9399948120117

>  <FSP3>
0.35

>  <QED>
0.786

$$$$
Z2364876163
  -OEChem-04242015583D

 54 56  0     1  0  0  0  0  0999 V2000
  -12.2089   13.7371   66.2238 C   0  0  0  0  0  0  0  0  0  0  0  0
  -11.9898   14.1982   67.3105 C   0  0  0  0  0  0  0  0  0  0  0  0
  -12.5977   15.7847   73.5779 C   0  0  0  0  0  0  0  0  0  0  0  0
  -13.3808   14.6714   73.2730 C   0  0  0  0  0  0  0  0  0  0  0  0
  -11.6710   16.2607   72.6504 C   0  0  0  0  0  0  0  0  0  0  0  0
  -11.2320    5.1549   73.3215 C   0  0  0  0  0  0  0  0  0  0  0  0
  -10.2883    7.1581   74.2879 C   0  0  0  0  0  0  0  0  0  0  0  0
  -13.2370   14.0340   72.0406 C   0  0  0  0  0  0  0  0  0  0  0  0
  -11.5272   15.6234   71.4181 C   0  0  0  0  0  0  0  0  0  0  0  0
  -10.8806    4.4376   74.4650 C   0  0  0  0  0  0  0  0  0  0  0  0
   -9.9369    6.4408   75.4315 C   0  0  0  0  0  0  0  0  0  0  0  0
  -10.9358    6.5151   73.2329 C   0  0  0  0  0  0  0  0  0  0  0  0
  -12.3102   14.5100   71.1131 C   0  0  0  0  0  0  0  0  0  0  0  0
  -10.2331    5.0806   75.5200 C   0  0  0  0  0  0  0  0  0  0  0  0
  -10.2470   10.6039   69.3898 C   0  0  0  0  0  0  0  0  0  0  0  0
  -11.3187   11.5868   69.0968 C   0  0  0  0  0  0  0  0  0  0  0  0
  -10.1899    7.2771   70.9289 C   0  0  0  0  0  0  0  0  0  0  0  0
   -9.5469    8.6431   70.7064 C   0  0  0  0  0  0  0  0  0  0  0  0
  -11.8219    9.6225   71.0823 C   0  0  0  0  0  0  0  0  0  0  0  0
  -11.3196    7.2983   71.9861 C   0  0  2  0  0  0  0  0  0  0  0  0
  -11.7604    8.7381   72.3240 C   0  0  2  0  0  0  0  0  0  0  0  0
  -11.7180   14.7640   68.6415 C   0  0  0  0  0  0  0  0  0  0  0  0
  -12.1532   13.8174   69.7733 C   0  0  1  0  0  0  0  0  0  0  0  0
  -10.5421    9.6585   70.3640 N   0  0  0  0  0  0  0  0  0  0  0  0
  -11.2220   12.7172   69.8790 N   0  0  0  0  0  0  0  0  0  0  0  0
  -13.1147    8.7088   72.9494 N   0  3  0  0  0  0  0  0  0  0  0  0
   -9.2196   10.7230   68.7359 O   0  0  0  0  0  0  0  0  0  0  0  0
  -12.1579   11.3492   68.2398 O   0  0  0  0  0  0  0  0  0  0  0  0
   -9.8980    4.3925   76.6193 F   0  0  0  0  0  0  0  0  0  0  0  0
  -12.4035   13.3276   65.2603 H   0  0  0  0  0  0  0  0  0  0  0  0
  -12.7108   16.2816   74.5370 H   0  0  0  0  0  0  0  0  0  0  0  0
  -14.1032   14.3012   73.9946 H   0  0  0  0  0  0  0  0  0  0  0  0
  -11.0620   17.1281   72.8871 H   0  0  0  0  0  0  0  0  0  0  0  0
  -11.7355    4.6451   72.5043 H   0  0  0  0  0  0  0  0  0  0  0  0
  -10.0538    8.2176   74.2279 H   0  0  0  0  0  0  0  0  0  0  0  0
  -13.8512   13.1671   71.8117 H   0  0  0  0  0  0  0  0  0  0  0  0
  -10.8025   16.0012   70.7017 H   0  0  0  0  0  0  0  0  0  0  0  0
  -11.1116    3.3790   74.5344 H   0  0  0  0  0  0  0  0  0  0  0  0
   -9.4325    6.9409   76.2528 H   0  0  0  0  0  0  0  0  0  0  0  0
  -10.6115    6.9379   69.9785 H   0  0  0  0  0  0  0  0  0  0  0  0
   -9.4202    6.5534   71.2078 H   0  0  0  0  0  0  0  0  0  0  0  0
   -9.0455    8.9822   71.6199 H   0  0  0  0  0  0  0  0  0  0  0  0
   -8.7842    8.5738   69.9247 H   0  0  0  0  0  0  0  0  0  0  0  0
  -12.6396    9.2954   70.4250 H   0  0  0  0  0  0  0  0  0  0  0  0
  -12.0606   10.6613   71.3598 H   0  0  0  0  0  0  0  0  0  0  0  0
  -12.1972    6.7371   71.5630 H   0  0  0  0  0  0  0  0  0  0  0  0
  -11.0963    9.1865   73.0725 H   0  0  0  0  0  0  0  0  0  0  0  0
  -10.6538   15.0157   68.7261 H   0  0  0  0  0  0  0  0  0  0  0  0
  -12.2611   15.7135   68.7358 H   0  0  0  0  0  0  0  0  0  0  0  0
  -13.1090   13.3555   69.4929 H   0  0  0  0  0  0  0  0  0  0  0  0
  -10.4670   12.7796   70.5561 H   0  0  0  0  0  0  0  0  0  0  0  0
  -13.4967    7.7615   72.9273 H   0  0  0  0  0  0  0  0  0  0  0  0
  -13.7524    9.3281   72.4453 H   0  0  0  0  0  0  0  0  0  0  0  0
  -13.0642    9.0165   73.9225 H   0  0  0  0  0  0  0  0  0  0  0  0
  1  2  3  0  0  0  0
  2 22  1  0  0  0  0
  3  4  2  0  0  0  0
  3  5  1  0  0  0  0
  4  8  1  0  0  0  0
  5  9  2  0  0  0  0
  6 10  1  0  0  0  0
  6 12  2  0  0  0  0
  7 11  2  0  0  0  0
  7 12  1  0  0  0  0
  8 13  2  0  0  0  0
  9 13  1  0  0  0  0
 10 14  2  0  0  0  0
 11 14  1  0  0  0  0
 12 20  1  0  0  0  0
 13 23  1  0  0  0  0
 14 29  1  0  0  0  0
 15 16  1  0  0  0  0
 15 24  1  0  0  0  0
 15 27  2  0  0  0  0
 16 25  1  0  0  0  0
 16 28  2  0  0  0  0
 17 18  1  0  0  0  0
 17 20  1  0  0  0  0
 18 24  1  0  0  0  0
 19 21  1  0  0  0  0
 19 24  1  0  0  0  0
 20 21  1  0  0  0  0
 21 26  1  0  0  0  0
 22 23  1  1  0  0  0
 23 25  1  0  0  0  0
  1 30  1  0  0  0  0
  3 31  1  0  0  0  0
  4 32  1  0  0  0  0
  5 33  1  0  0  0  0
  6 34  1  0  0  0  0
  7 35  1  0  0  0  0
  8 36  1  0  0  0  0
  9 37  1  0  0  0  0
 10 38  1  0  0  0  0
 11 39  1  0  0  0  0
 17 40  1  0  0  0  0
 17 41  1  0  0  0  0
 18 42  1  0  0  0  0
 18 43  1  0  0  0  0
 19 44  1  0  0  0  0
 19 45  1  0  0  0  0
 20 46  1  6  0  0  0
 21 47  1  1  0  0  0
 22 48  1  0  0  0  0
 22 49  1  0  0  0  0
 23 50  1  0  0  0  0
 25 51  1  0  0  0  0
 26 52  1  0  0  0  0
 26 53  1  0  0  0  0
 26 54  1  0  0  0  0
M  CHG  1  26   1
M  END
>  <idnumber>
Z2364876163

>  <Chemgauss4>
-13.9383687973022

>  <Hetero-Bemis-Murcko>
c1ccc(cc1)CNCCN2CCC(CC2)c3ccccc3

>  <Hetero-Bemis-Murcko>
c1ccc(cc1)CNCCN2CCC(CC2)c3ccccc3

>  <MW>
393.462

>  <HBD>
2

>  <HBA>
3

>  <RotBonds>
4

>  <XLogP>
2.32099986076355

>  <sLogP>
2.35

>  <TPSA>
77.0500030517578

>  <FSP3>
0.304

>  <QED>
0.619

$$$$
Z2861553595
  -OEChem-04242015583D

 53 55  0     1  0  0  0  0  0999 V2000
  -12.6946   15.8115   73.6548 C   0  0  0  0  0  0  0  0  0  0  0  0
  -13.5578   14.7612   73.3429 C   0  0  0  0  0  0  0  0  0  0  0  0
  -11.6667   16.1539   72.7761 C   0  0  0  0  0  0  0  0  0  0  0  0
  -13.3931   14.0531   72.1525 C   0  0  0  0  0  0  0  0  0  0  0  0
  -11.5021   15.4458   71.5857 C   0  0  0  0  0  0  0  0  0  0  0  0
  -12.8309   13.3154   65.5756 C   0  0  0  0  0  0  0  0  0  0  0  0
  -11.5398   12.8707   65.5270 C   0  0  0  0  0  0  0  0  0  0  0  0
  -12.3653   14.3954   71.2738 C   0  0  0  0  0  0  0  0  0  0  0  0
  -11.8353   13.9000   67.4644 C   0  0  0  0  0  0  0  0  0  0  0  0
  -11.5141   11.2988   69.4475 C   0  0  0  0  0  0  0  0  0  0  0  0
  -10.5690   10.2221   69.8758 C   0  0  0  0  0  0  0  0  0  0  0  0
  -13.3384    8.6023   70.8777 C   0  0  0  0  0  0  0  0  0  0  0  0
  -14.4268    8.5308   71.9292 C   0  0  0  0  0  0  0  0  0  0  0  0
  -12.2590    8.9557   72.9681 C   0  0  0  0  0  0  0  0  0  0  0  0
  -12.2817    9.4709   71.5398 C   0  0  1  0  0  0  0  0  0  0  0  0
   -9.2614    8.7730   72.4743 C   0  0  0  0  0  0  0  0  0  0  0  0
  -11.5843   14.4784   68.8384 C   0  0  0  0  0  0  0  0  0  0  0  0
  -10.1334    8.3102   71.3572 C   0  0  0  0  0  0  0  0  0  0  0  0
  -12.1852   13.6244   69.9772 C   0  0  1  0  0  0  0  0  0  0  0  0
  -12.9861   13.9481   66.7855 N   0  0  0  0  0  0  0  0  0  0  0  0
  -10.9473   13.2465   66.7084 N   0  3  0  0  0  0  0  0  0  0  0  0
  -11.3674   12.4523   70.1837 N   0  0  0  0  0  0  0  0  0  0  0  0
  -11.0045    9.3797   70.8934 N   0  0  0  0  0  0  0  0  0  0  0  0
  -13.6802    8.5461   73.2320 N   0  3  0  0  0  0  0  0  0  0  0  0
  -12.2975   11.0487   68.5457 O   0  0  0  0  0  0  0  0  0  0  0  0
   -9.4947   10.1945   69.2873 O   0  0  0  0  0  0  0  0  0  0  0  0
  -12.8238   16.3636   74.5811 H   0  0  0  0  0  0  0  0  0  0  0  0
  -14.3588   14.4951   74.0265 H   0  0  0  0  0  0  0  0  0  0  0  0
  -10.9952   16.9723   73.0180 H   0  0  0  0  0  0  0  0  0  0  0  0
  -14.0703   13.2360   71.9179 H   0  0  0  0  0  0  0  0  0  0  0  0
  -10.6984   15.7195   70.9072 H   0  0  0  0  0  0  0  0  0  0  0  0
  -13.6797   13.2776   64.9223 H   0  0  0  0  0  0  0  0  0  0  0  0
  -10.9407   12.3341   64.8186 H   0  0  0  0  0  0  0  0  0  0  0  0
  -12.9692    7.6171   70.5901 H   0  0  0  0  0  0  0  0  0  0  0  0
  -13.7187    9.0994   69.9807 H   0  0  0  0  0  0  0  0  0  0  0  0
  -15.1119    9.3812   71.9110 H   0  0  0  0  0  0  0  0  0  0  0  0
  -14.9810    7.5888   71.8916 H   0  0  0  0  0  0  0  0  0  0  0  0
  -11.6071    8.0955   73.1404 H   0  0  0  0  0  0  0  0  0  0  0  0
  -12.0275    9.7534   73.6805 H   0  0  0  0  0  0  0  0  0  0  0  0
  -12.5794   10.5392   71.5147 H   0  0  0  0  0  0  0  0  0  0  0  0
   -9.8875    9.1096   73.3137 H   0  0  0  0  0  0  0  0  0  0  0  0
   -8.6191    7.9437   72.8056 H   0  0  0  0  0  0  0  0  0  0  0  0
   -8.6335    9.6071   72.1278 H   0  0  0  0  0  0  0  0  0  0  0  0
  -12.0211   15.4867   68.8588 H   0  0  0  0  0  0  0  0  0  0  0  0
  -10.5061   14.6262   68.9848 H   0  0  0  0  0  0  0  0  0  0  0  0
   -9.5002    7.9755   70.5223 H   0  0  0  0  0  0  0  0  0  0  0  0
  -10.7513    7.4706   71.7082 H   0  0  0  0  0  0  0  0  0  0  0  0
  -13.1683   13.2584   69.6544 H   0  0  0  0  0  0  0  0  0  0  0  0
  -13.8429   14.3849   67.1142 H   0  0  0  0  0  0  0  0  0  0  0  0
   -9.9830   13.0568   66.9681 H   0  0  0  0  0  0  0  0  0  0  0  0
  -10.6560   12.4935   70.9078 H   0  0  0  0  0  0  0  0  0  0  0  0
  -14.1209    9.1937   73.8990 H   0  0  0  0  0  0  0  0  0  0  0  0
  -13.7114    7.6138   73.6658 H   0  0  0  0  0  0  0  0  0  0  0  0
  1  2  2  0  0  0  0
  1  3  1  0  0  0  0
  2  4  1  0  0  0  0
  3  5  2  0  0  0  0
  4  8  2  0  0  0  0
  5  8  1  0  0  0  0
  6  7  2  0  0  0  0
  6 20  1  0  0  0  0
  7 21  1  0  0  0  0
  8 19  1  0  0  0  0
  9 17  1  0  0  0  0
  9 20  1  0  0  0  0
  9 21  2  0  0  0  0
 10 11  1  0  0  0  0
 10 22  1  0  0  0  0
 10 25  2  0  0  0  0
 11 23  1  0  0  0  0
 11 26  2  0  0  0  0
 12 13  1  0  0  0  0
 12 15  1  0  0  0  0
 13 24  1  0  0  0  0
 14 15  1  0  0  0  0
 14 24  1  0  0  0  0
 15 23  1  6  0  0  0
 16 18  1  0  0  0  0
 17 19  1  6  0  0  0
 18 23  1  0  0  0  0
 19 22  1  0  0  0  0
  1 27  1  0  0  0  0
  2 28  1  0  0  0  0
  3 29  1  0  0  0  0
  4 30  1  0  0  0  0
  5 31  1  0  0  0  0
  6 32  1  0  0  0  0
  7 33  1  0  0  0  0
 12 34  1  0  0  0  0
 12 35  1  0  0  0  0
 13 36  1  0  0  0  0
 13 37  1  0  0  0  0
 14 38  1  0  0  0  0
 14 39  1  0  0  0  0
 15 40  1  0  0  0  0
 16 41  1  0  0  0  0
 16 42  1  0  0  0  0
 16 43  1  0  0  0  0
 17 44  1  0  0  0  0
 17 45  1  0  0  0  0
 18 46  1  0  0  0  0
 18 47  1  0  0  0  0
 19 48  1  0  0  0  0
 20 49  1  0  0  0  0
 21 50  1  0  0  0  0
 22 51  1  0  0  0  0
 24 52  1  0  0  0  0
 24 53  1  0  0  0  0
M  CHG  2  21   1  24   1
M  END
>  <idnumber>
Z2861553595

>  <Chemgauss4>
-13.9304695129395

>  <Hetero-Bemis-Murcko>
c1ccc(cc1)C(Cc2[nH]cc[nH+]2)NCCNC3CC[NH2+]C3

>  <Hetero-Bemis-Murcko>
c1ccc(cc1)C(Cc2[nH]cc[nH+]2)NCCNC3CC[NH2+]C3

>  <MW>
355.442

>  <HBD>
3

>  <HBA>
4

>  <RotBonds>
6

>  <XLogP>
1.02299976348877

>  <sLogP>
1.02

>  <TPSA>
95.9499969482422

>  <FSP3>
0.421

>  <QED>
0.675

$$$$
Z2203179060
  -OEChem-04242015583D

 46 49  0     1  0  0  0  0  0999 V2000
  -10.1533   12.3721   64.6814 C   0  0  0  0  0  0  0  0  0  0  0  0
  -13.2866   15.4265   72.9255 C   0  0  0  0  0  0  0  0  0  0  0  0
   -9.1293   12.7754   65.5383 C   0  0  0  0  0  0  0  0  0  0  0  0
  -11.4699   12.3282   65.1401 C   0  0  0  0  0  0  0  0  0  0  0  0
  -14.3271   14.9657   72.1190 C   0  0  0  0  0  0  0  0  0  0  0  0
  -11.9816   15.4527   72.4332 C   0  0  0  0  0  0  0  0  0  0  0  0
   -9.8549    8.5308   71.4895 C   0  0  0  0  0  0  0  0  0  0  0  0
  -10.1231    9.5403   70.5631 C   0  0  0  0  0  0  0  0  0  0  0  0
   -9.4217   13.1347   66.8540 C   0  0  0  0  0  0  0  0  0  0  0  0
  -11.7624   12.6875   66.4558 C   0  0  0  0  0  0  0  0  0  0  0  0
  -14.0628   14.5309   70.8202 C   0  0  0  0  0  0  0  0  0  0  0  0
  -11.7173   15.0178   71.1345 C   0  0  0  0  0  0  0  0  0  0  0  0
  -10.8456    8.0646   72.3599 C   0  0  0  0  0  0  0  0  0  0  0  0
  -13.7608    9.9602   71.5787 C   0  0  0  0  0  0  0  0  0  0  0  0
  -12.4013    9.6615   71.3443 C   0  0  0  0  0  0  0  0  0  0  0  0
  -11.3956   10.1190   70.4765 C   0  0  0  0  0  0  0  0  0  0  0  0
  -10.7383   13.0908   67.3128 C   0  0  0  0  0  0  0  0  0  0  0  0
  -12.7579   14.5569   70.3280 C   0  0  0  0  0  0  0  0  0  0  0  0
  -12.1071    8.6550   72.2573 C   0  0  0  0  0  0  0  0  0  0  0  0
  -11.6594   11.1695   69.5091 C   0  0  0  0  0  0  0  0  0  0  0  0
  -11.0568   13.4809   68.7425 C   0  0  1  0  0  0  0  0  0  0  0  0
  -12.4703   14.0850   68.9186 C   0  0  2  0  0  0  0  0  0  0  0  0
  -14.2944    9.2174   72.5511 N   0  0  0  0  0  0  0  0  0  0  0  0
  -13.2723    8.4382   72.9423 N   0  0  0  0  0  0  0  0  0  0  0  0
  -10.8966   12.3395   69.6144 N   0  0  0  0  0  0  0  0  0  0  0  0
  -12.5433   11.0266   68.6442 O   0  0  0  0  0  0  0  0  0  0  0  0
  -12.6118   15.2181   68.0559 O   0  0  0  0  0  0  0  0  0  0  0  0
   -9.9256   12.0937   63.6566 H   0  0  0  0  0  0  0  0  0  0  0  0
  -13.4927   15.7664   73.9362 H   0  0  0  0  0  0  0  0  0  0  0  0
   -8.1042   12.8107   65.1810 H   0  0  0  0  0  0  0  0  0  0  0  0
  -12.2676   12.0153   64.4730 H   0  0  0  0  0  0  0  0  0  0  0  0
  -15.3434   14.9464   72.5017 H   0  0  0  0  0  0  0  0  0  0  0  0
  -11.1714   15.8124   73.0605 H   0  0  0  0  0  0  0  0  0  0  0  0
   -8.8582    8.0991   71.5369 H   0  0  0  0  0  0  0  0  0  0  0  0
   -9.3263    9.8749   69.9024 H   0  0  0  0  0  0  0  0  0  0  0  0
   -8.6174   13.4475   67.5146 H   0  0  0  0  0  0  0  0  0  0  0  0
  -12.7910   12.6501   66.8045 H   0  0  0  0  0  0  0  0  0  0  0  0
  -14.8798   14.1733   70.1991 H   0  0  0  0  0  0  0  0  0  0  0  0
  -10.6976   15.0416   70.7595 H   0  0  0  0  0  0  0  0  0  0  0  0
  -10.6394    7.2804   73.0798 H   0  0  0  0  0  0  0  0  0  0  0  0
  -14.3854   10.6885   71.0809 H   0  0  0  0  0  0  0  0  0  0  0  0
  -10.3127   14.2034   69.1019 H   0  0  0  0  0  0  0  0  0  0  0  0
  -13.2359   13.3632   68.6072 H   0  0  0  0  0  0  0  0  0  0  0  0
  -13.4363    7.7737   73.6883 H   0  0  0  0  0  0  0  0  0  0  0  0
  -10.2326   12.4304   70.3764 H   0  0  0  0  0  0  0  0  0  0  0  0
  -12.4252   14.9009   67.1605 H   0  0  0  0  0  0  0  0  0  0  0  0
  1  3  2  0  0  0  0
  1  4  1  0  0  0  0
  2  5  2  0  0  0  0
  2  6  1  0  0  0  0
  3  9  1  0  0  0  0
  4 10  2  0  0  0  0
  5 11  1  0  0  0  0
  6 12  2  0  0  0  0
  7  8  1  0  0  0  0
  7 13  2  0  0  0  0
  8 16  2  0  0  0  0
  9 17  2  0  0  0  0
 10 17  1  0  0  0  0
 11 18  2  0  0  0  0
 12 18  1  0  0  0  0
 13 19  1  0  0  0  0
 14 15  1  0  0  0  0
 14 23  2  0  0  0  0
 15 16  1  0  0  0  0
 15 19  2  0  0  0  0
 16 20  1  0  0  0  0
 17 21  1  0  0  0  0
 18 22  1  0  0  0  0
 19 24  1  0  0  0  0
 20 25  1  0  0  0  0
 20 26  2  0  0  0  0
 21 22  1  0  0  0  0
 21 25  1  0  0  0  0
 22 27  1  0  0  0  0
 23 24  1  0  0  0  0
  1 28  1  0  0  0  0
  2 29  1  0  0  0  0
  3 30  1  0  0  0  0
  4 31  1  0  0  0  0
  5 32  1  0  0  0  0
  6 33  1  0  0  0  0
  7 34  1  0  0  0  0
  8 35  1  0  0  0  0
  9 36  1  0  0  0  0
 10 37  1  0  0  0  0
 11 38  1  0  0  0  0
 12 39  1  0  0  0  0
 13 40  1  0  0  0  0
 14 41  1  0  0  0  0
 21 42  1  6  0  0  0
 22 43  1  1  0  0  0
 24 44  1  0  0  0  0
 25 45  1  0  0  0  0
 27 46  1  0  0  0  0
M  END
>  <idnumber>
Z2203179060

>  <Chemgauss4>
-13.9280052185059

>  <Hetero-Bemis-Murcko>
c1ccc(cc1)CC(c2ccccc2)NCc3cccc4c3cn[nH]4

>  <Hetero-Bemis-Murcko>
c1ccc(cc1)CC(c2ccccc2)NCc3cccc4c3cn[nH]4

>  <MW>
357.413

>  <HBD>
3

>  <HBA>
3

>  <RotBonds>
5

>  <XLogP>
3.38499999046326

>  <sLogP>
3.768

>  <TPSA>
78.0099945068359

>  <FSP3>
0.091

>  <QED>
0.509

$$$$
Z1535747951
  -OEChem-04242015583D

 55 57  0     1  0  0  0  0  0999 V2000
  -11.8038   12.5130   64.7772 C   0  0  0  0  0  0  0  0  0  0  0  0
  -12.9465   16.2134   73.1538 C   0  0  0  0  0  0  0  0  0  0  0  0
  -10.7692   12.1447   65.6372 C   0  0  0  0  0  0  0  0  0  0  0  0
  -12.7102   13.5018   65.1599 C   0  0  0  0  0  0  0  0  0  0  0  0
  -13.8409   15.1950   72.8240 C   0  0  0  0  0  0  0  0  0  0  0  0
  -11.8073   16.4201   72.3759 C   0  0  0  0  0  0  0  0  0  0  0  0
  -10.6411   12.7650   66.8799 C   0  0  0  0  0  0  0  0  0  0  0  0
  -12.5820   14.1222   66.4026 C   0  0  0  0  0  0  0  0  0  0  0  0
  -13.5959   14.3833   71.7164 C   0  0  0  0  0  0  0  0  0  0  0  0
  -11.5624   15.6084   71.2683 C   0  0  0  0  0  0  0  0  0  0  0  0
  -11.5475   13.7538   67.2626 C   0  0  0  0  0  0  0  0  0  0  0  0
  -12.4567   14.5900   70.9385 C   0  0  0  0  0  0  0  0  0  0  0  0
  -12.3078    6.2993   72.1300 C   0  0  0  0  0  0  0  0  0  0  0  0
  -11.6399   11.3081   69.4407 C   0  0  0  0  0  0  0  0  0  0  0  0
  -11.8584    6.5765   70.7120 C   0  0  0  0  0  0  0  0  0  0  0  0
  -13.4941    8.5167   72.1383 C   0  0  0  0  0  0  0  0  0  0  0  0
  -12.3531    9.4688   71.8269 C   0  0  0  0  0  0  0  0  0  0  0  0
  -10.8855    7.7500   70.5633 C   0  0  2  0  0  0  0  0  0  0  0  0
   -9.7408    7.7373   71.5742 C   0  0  0  0  0  0  0  0  0  0  0  0
  -11.4093   14.4264   68.6094 C   0  0  0  0  0  0  0  0  0  0  0  0
  -10.7905   10.2166   70.0416 C   0  0  0  0  0  0  0  0  0  0  0  0
  -12.1892   13.7062   69.7321 C   0  0  1  0  0  0  0  0  0  0  0  0
  -13.0485    7.2790   72.7441 N   0  0  0  0  0  0  0  0  0  0  0  0
  -11.4823   12.5081   70.1177 N   0  0  0  0  0  0  0  0  0  0  0  0
  -11.6383    9.0742   70.5548 N   0  3  2  0  0  0  0  0  0  0  0  0
  -12.0176    5.2415   72.6913 O   0  0  0  0  0  0  0  0  0  0  0  0
  -12.3729   11.1349   68.4706 O   0  0  0  0  0  0  0  0  0  0  0  0
  -11.9026   12.0308   63.8090 H   0  0  0  0  0  0  0  0  0  0  0  0
  -13.1381   16.8461   74.0155 H   0  0  0  0  0  0  0  0  0  0  0  0
  -10.0627   11.3756   65.3389 H   0  0  0  0  0  0  0  0  0  0  0  0
  -13.5151   13.7896   64.4901 H   0  0  0  0  0  0  0  0  0  0  0  0
  -14.7285   15.0346   73.4289 H   0  0  0  0  0  0  0  0  0  0  0  0
  -11.1113   17.2135   72.6317 H   0  0  0  0  0  0  0  0  0  0  0  0
   -9.8320   12.4715   67.5435 H   0  0  0  0  0  0  0  0  0  0  0  0
  -13.2930   14.8914   66.6924 H   0  0  0  0  0  0  0  0  0  0  0  0
  -14.2982   13.5922   71.4671 H   0  0  0  0  0  0  0  0  0  0  0  0
  -10.6721   15.7767   70.6681 H   0  0  0  0  0  0  0  0  0  0  0  0
  -11.3567    5.6668   70.3558 H   0  0  0  0  0  0  0  0  0  0  0  0
  -12.7374    6.6990   70.0684 H   0  0  0  0  0  0  0  0  0  0  0  0
  -14.1660    8.9869   72.8649 H   0  0  0  0  0  0  0  0  0  0  0  0
  -14.0890    8.2868   71.2478 H   0  0  0  0  0  0  0  0  0  0  0  0
  -12.7719   10.4660   71.6482 H   0  0  0  0  0  0  0  0  0  0  0  0
  -11.6209    9.5469   72.6367 H   0  0  0  0  0  0  0  0  0  0  0  0
  -10.4535    7.6700   69.5574 H   0  0  0  0  0  0  0  0  0  0  0  0
  -10.1394    7.8155   72.5843 H   0  0  0  0  0  0  0  0  0  0  0  0
   -9.0743    8.5778   71.3878 H   0  0  0  0  0  0  0  0  0  0  0  0
   -9.1785    6.8092   71.4835 H   0  0  0  0  0  0  0  0  0  0  0  0
  -11.7750   15.4575   68.5045 H   0  0  0  0  0  0  0  0  0  0  0  0
  -10.3461   14.5203   68.8672 H   0  0  0  0  0  0  0  0  0  0  0  0
  -10.2215   10.5996   70.8934 H   0  0  0  0  0  0  0  0  0  0  0  0
  -10.1153    9.8014   69.2882 H   0  0  0  0  0  0  0  0  0  0  0  0
  -13.1538   13.3749   69.3268 H   0  0  0  0  0  0  0  0  0  0  0  0
  -13.3497    7.0965   73.6966 H   0  0  0  0  0  0  0  0  0  0  0  0
  -10.8694   12.5511   70.9269 H   0  0  0  0  0  0  0  0  0  0  0  0
  -12.3730    8.9650   69.8424 H   0  0  0  0  0  0  0  0  0  0  0  0
  1  3  2  0  0  0  0
  1  4  1  0  0  0  0
  2  5  2  0  0  0  0
  2  6  1  0  0  0  0
  3  7  1  0  0  0  0
  4  8  2  0  0  0  0
  5  9  1  0  0  0  0
  6 10  2  0  0  0  0
  7 11  2  0  0  0  0
  8 11  1  0  0  0  0
  9 12  2  0  0  0  0
 10 12  1  0  0  0  0
 11 20  1  0  0  0  0
 12 22  1  0  0  0  0
 13 15  1  0  0  0  0
 13 23  1  0  0  0  0
 13 26  2  0  0  0  0
 14 21  1  0  0  0  0
 14 24  1  0  0  0  0
 14 27  2  0  0  0  0
 15 18  1  0  0  0  0
 16 17  1  0  0  0  0
 16 23  1  0  0  0  0
 17 25  1  0  0  0  0
 18 19  1  6  0  0  0
 18 25  1  0  0  0  0
 20 22  1  6  0  0  0
 21 25  1  1  0  0  0
 22 24  1  0  0  0  0
  1 28  1  0  0  0  0
  2 29  1  0  0  0  0
  3 30  1  0  0  0  0
  4 31  1  0  0  0  0
  5 32  1  0  0  0  0
  6 33  1  0  0  0  0
  7 34  1  0  0  0  0
  8 35  1  0  0  0  0
  9 36  1  0  0  0  0
 10 37  1  0  0  0  0
 15 38  1  0  0  0  0
 15 39  1  0  0  0  0
 16 40  1  0  0  0  0
 16 41  1  0  0  0  0
 17 42  1  0  0  0  0
 17 43  1  0  0  0  0
 18 44  1  0  0  0  0
 19 45  1  0  0  0  0
 19 46  1  0  0  0  0
 19 47  1  0  0  0  0
 20 48  1  0  0  0  0
 20 49  1  0  0  0  0
 21 50  1  0  0  0  0
 21 51  1  0  0  0  0
 22 52  1  0  0  0  0
 23 53  1  0  0  0  0
 24 54  1  0  0  0  0
 25 55  1  0  0  0  0
M  CHG  1  25   1
M  END
>  <idnumber>
Z1535747951

>  <Chemgauss4>
-13.9262256622314

>  <Hetero-Bemis-Murcko>
c1ccc(cc1)CC(c2ccccc2)NCC[NH+]3CCCNCC3

>  <Hetero-Bemis-Murcko>
c1ccc(cc1)CC(c2ccccc2)NCC[NH+]3CCCNCC3

>  <MW>
365.477

>  <HBD>
2

>  <HBA>
3

>  <RotBonds>
6

>  <XLogP>
2.33099985122681

>  <sLogP>
2.297

>  <TPSA>
62.6399955749512

>  <FSP3>
0.364

>  <QED>
0.826

$$$$
Z2002995011
  -OEChem-04242015583D

 55 57  0     1  0  0  0  0  0999 V2000
   -9.7008   12.1668   64.9632 C   0  0  0  0  0  0  0  0  0  0  0  0
  -10.5309   11.9020   63.8757 C   0  0  0  0  0  0  0  0  0  0  0  0
  -10.1453   12.9598   66.0273 C   0  0  0  0  0  0  0  0  0  0  0  0
  -11.8281   12.4194   63.8164 C   0  0  0  0  0  0  0  0  0  0  0  0
  -13.4441   14.5118   66.2916 C   0  0  0  0  0  0  0  0  0  0  0  0
  -11.4493   13.4924   65.9897 C   0  0  0  0  0  0  0  0  0  0  0  0
  -12.2103   14.3142   66.8675 C   0  0  0  0  0  0  0  0  0  0  0  0
  -12.2590   13.2105   64.8873 C   0  0  0  0  0  0  0  0  0  0  0  0
  -13.4324    9.0938   72.1940 C   0  0  0  0  0  0  0  0  0  0  0  0
  -12.0402   11.7014   69.0504 C   0  0  0  0  0  0  0  0  0  0  0  0
  -12.2932   15.0160   70.6692 C   0  0  0  0  0  0  0  0  0  0  0  0
  -12.6840   10.0795   71.3376 C   0  0  0  0  0  0  0  0  0  0  0  0
  -12.2110    7.2201   71.0742 C   0  0  0  0  0  0  0  0  0  0  0  0
  -11.1649    8.2041   70.5359 C   0  0  0  0  0  0  0  0  0  0  0  0
  -10.0731    8.4969   71.5750 C   0  0  0  0  0  0  0  0  0  0  0  0
  -10.5340    7.6000   69.2711 C   0  0  0  0  0  0  0  0  0  0  0  0
  -12.7904   15.1167   72.9801 C   0  0  0  0  0  0  0  0  0  0  0  0
  -11.7554   14.8765   68.1954 C   0  0  0  0  0  0  0  0  0  0  0  0
  -11.1589   10.5410   69.4388 C   0  0  0  0  0  0  0  0  0  0  0  0
  -12.3002   14.1364   69.4259 C   0  0  1  0  0  0  0  0  0  0  0  0
  -13.4640   13.8420   65.0977 N   0  0  0  0  0  0  0  0  0  0  0  0
  -13.0701    7.7740   72.0982 N   0  0  0  0  0  0  0  0  0  0  0  0
  -11.6194   12.8822   69.6437 N   0  0  0  0  0  0  0  0  0  0  0  0
  -11.9392    9.4741   70.1685 N   0  3  2  0  0  0  0  0  0  0  0  0
  -14.2831    9.4861   72.9953 O   0  0  0  0  0  0  0  0  0  0  0  0
  -13.0057   11.5928   68.2992 O   0  0  0  0  0  0  0  0  0  0  0  0
  -11.8761   16.1697   70.6609 O   0  0  0  0  0  0  0  0  0  0  0  0
  -12.7800   14.3647   71.7625 O   0  0  0  0  0  0  0  0  0  0  0  0
   -8.6963   11.7528   64.9869 H   0  0  0  0  0  0  0  0  0  0  0  0
  -10.1652   11.2836   63.0601 H   0  0  0  0  0  0  0  0  0  0  0  0
   -9.4864   13.1562   66.8684 H   0  0  0  0  0  0  0  0  0  0  0  0
  -12.4732   12.2137   62.9690 H   0  0  0  0  0  0  0  0  0  0  0  0
  -14.3103   15.0672   66.6240 H   0  0  0  0  0  0  0  0  0  0  0  0
  -13.4018   10.7912   70.9154 H   0  0  0  0  0  0  0  0  0  0  0  0
  -11.9585   10.6152   71.9583 H   0  0  0  0  0  0  0  0  0  0  0  0
  -12.8752    6.8764   70.2716 H   0  0  0  0  0  0  0  0  0  0  0  0
  -11.7330    6.3310   71.5013 H   0  0  0  0  0  0  0  0  0  0  0  0
   -9.3544    9.1953   71.1565 H   0  0  0  0  0  0  0  0  0  0  0  0
   -9.5689    7.5720   71.8392 H   0  0  0  0  0  0  0  0  0  0  0  0
  -10.5259    8.9299   72.4622 H   0  0  0  0  0  0  0  0  0  0  0  0
   -9.7903    8.2859   68.8778 H   0  0  0  0  0  0  0  0  0  0  0  0
  -11.3073    7.4355   68.5274 H   0  0  0  0  0  0  0  0  0  0  0  0
  -10.0620    6.6550   69.5214 H   0  0  0  0  0  0  0  0  0  0  0  0
  -13.1979   14.5013   73.7859 H   0  0  0  0  0  0  0  0  0  0  0  0
  -13.3993   16.0149   72.8496 H   0  0  0  0  0  0  0  0  0  0  0  0
  -11.7664   15.4060   73.2280 H   0  0  0  0  0  0  0  0  0  0  0  0
  -12.0491   15.9337   68.2455 H   0  0  0  0  0  0  0  0  0  0  0  0
  -10.6576   14.8761   68.2193 H   0  0  0  0  0  0  0  0  0  0  0  0
  -10.3642   10.8727   70.1128 H   0  0  0  0  0  0  0  0  0  0  0  0
  -10.7317   10.0726   68.5477 H   0  0  0  0  0  0  0  0  0  0  0  0
  -13.3484   13.8677   69.2484 H   0  0  0  0  0  0  0  0  0  0  0  0
  -14.2493   13.8148   64.4621 H   0  0  0  0  0  0  0  0  0  0  0  0
  -13.4331    7.1365   72.8003 H   0  0  0  0  0  0  0  0  0  0  0  0
  -10.8209   12.8715   70.2719 H   0  0  0  0  0  0  0  0  0  0  0  0
  -12.6669    9.1727   69.5055 H   0  0  0  0  0  0  0  0  0  0  0  0
  1  2  2  0  0  0  0
  1  3  1  0  0  0  0
  2  4  1  0  0  0  0
  3  6  2  0  0  0  0
  4  8  2  0  0  0  0
  5  7  2  0  0  0  0
  5 21  1  0  0  0  0
  6  7  1  0  0  0  0
  6  8  1  0  0  0  0
  7 18  1  0  0  0  0
  8 21  1  0  0  0  0
  9 12  1  0  0  0  0
  9 22  1  0  0  0  0
  9 25  2  0  0  0  0
 10 19  1  0  0  0  0
 10 23  1  0  0  0  0
 10 26  2  0  0  0  0
 11 20  1  1  0  0  0
 11 27  2  0  0  0  0
 11 28  1  0  0  0  0
 12 24  1  0  0  0  0
 13 14  1  0  0  0  0
 13 22  1  0  0  0  0
 14 15  1  0  0  0  0
 14 16  1  0  0  0  0
 14 24  1  0  0  0  0
 17 28  1  0  0  0  0
 18 20  1  0  0  0  0
 19 24  1  1  0  0  0
 20 23  1  0  0  0  0
  1 29  1  0  0  0  0
  2 30  1  0  0  0  0
  3 31  1  0  0  0  0
  4 32  1  0  0  0  0
  5 33  1  0  0  0  0
 12 34  1  0  0  0  0
 12 35  1  0  0  0  0
 13 36  1  0  0  0  0
 13 37  1  0  0  0  0
 15 38  1  0  0  0  0
 15 39  1  0  0  0  0
 15 40  1  0  0  0  0
 16 41  1  0  0  0  0
 16 42  1  0  0  0  0
 16 43  1  0  0  0  0
 17 44  1  0  0  0  0
 17 45  1  0  0  0  0
 17 46  1  0  0  0  0
 18 47  1  0  0  0  0
 18 48  1  0  0  0  0
 19 49  1  0  0  0  0
 19 50  1  0  0  0  0
 20 51  1  0  0  0  0
 21 52  1  0  0  0  0
 22 53  1  0  0  0  0
 23 54  1  0  0  0  0
 24 55  1  0  0  0  0
M  CHG  1  24   1
M  END
>  <idnumber>
Z2002995011

>  <Chemgauss4>
-13.9226293563843

>  <Hetero-Bemis-Murcko>
c1ccc2c(c1)c(c[nH]2)CCNCC[NH+]3CCNCC3

>  <Hetero-Bemis-Murcko>
c1ccc2c(c1)c(c[nH]2)CCNCC[NH+]3CCNCC3

>  <MW>
386.452

>  <HBD>
3

>  <HBA>
5

>  <RotBonds>
6

>  <XLogP>
0.589000165462494

>  <sLogP>
0.579

>  <TPSA>
104.730003356934

>  <FSP3>
0.45

>  <QED>
0.63

$$$$
Z2947765720
  -OEChem-04242015583D

 53 55  0     1  0  0  0  0  0999 V2000
  -12.6007   16.3624   73.4307 C   0  0  0  0  0  0  0  0  0  0  0  0
  -13.5706   15.4099   73.1186 C   0  0  0  0  0  0  0  0  0  0  0  0
  -11.5315   16.5799   72.5616 C   0  0  0  0  0  0  0  0  0  0  0  0
  -13.4714   14.6747   71.9373 C   0  0  0  0  0  0  0  0  0  0  0  0
  -11.4323   15.8447   71.3804 C   0  0  0  0  0  0  0  0  0  0  0  0
  -10.3588   13.2593   67.1387 C   0  0  0  0  0  0  0  0  0  0  0  0
  -12.4920   14.1278   66.4093 C   0  0  0  0  0  0  0  0  0  0  0  0
  -10.2554   12.5224   65.9590 C   0  0  0  0  0  0  0  0  0  0  0  0
  -12.3886   13.3909   65.2295 C   0  0  0  0  0  0  0  0  0  0  0  0
  -11.4771   14.0620   67.3639 C   0  0  0  0  0  0  0  0  0  0  0  0
  -12.4023   14.8921   71.0682 C   0  0  0  0  0  0  0  0  0  0  0  0
  -11.2703   12.5882   65.0044 C   0  0  0  0  0  0  0  0  0  0  0  0
  -10.9867    6.0521   69.1688 C   0  0  0  0  0  0  0  0  0  0  0  0
  -11.8765   11.7006   69.2832 C   0  0  0  0  0  0  0  0  0  0  0  0
  -11.0606   10.5313   69.7339 C   0  0  0  0  0  0  0  0  0  0  0  0
  -10.1189    5.6097   70.3212 C   0  0  0  0  0  0  0  0  0  0  0  0
  -10.9024    6.0821   71.5433 C   0  0  0  0  0  0  0  0  0  0  0  0
  -11.6509    7.3152   71.0520 C   0  0  1  0  0  0  0  0  0  0  0  0
  -12.8868    9.9958   71.3950 C   0  0  0  0  0  0  0  0  0  0  0  0
  -11.5895   14.8616   68.6420 C   0  0  0  0  0  0  0  0  0  0  0  0
  -10.8547    8.5998   71.2394 C   0  0  0  0  0  0  0  0  0  0  0  0
  -12.2935   14.0916   69.7816 C   0  0  1  0  0  0  0  0  0  0  0  0
  -11.8535    7.0259   69.6538 N   0  0  0  0  0  0  0  0  0  0  0  0
  -11.6121   12.8391   70.0098 N   0  0  0  0  0  0  0  0  0  0  0  0
  -11.5976    9.7533   70.7543 N   0  0  0  0  0  0  0  0  0  0  0  0
  -10.9013    5.6425   68.0215 O   0  0  0  0  0  0  0  0  0  0  0  0
  -12.6724   11.5280   68.3743 O   0  0  0  0  0  0  0  0  0  0  0  0
   -9.9892   10.3793   69.1591 O   0  0  0  0  0  0  0  0  0  0  0  0
  -11.1698   11.8826   63.8702 F   0  0  0  0  0  0  0  0  0  0  0  0
  -12.6788   16.9357   74.3499 H   0  0  0  0  0  0  0  0  0  0  0  0
  -14.4038   15.2412   73.7947 H   0  0  0  0  0  0  0  0  0  0  0  0
  -10.7768   17.3222   72.8038 H   0  0  0  0  0  0  0  0  0  0  0  0
  -14.2318   13.9345   71.7024 H   0  0  0  0  0  0  0  0  0  0  0  0
  -10.5958   16.0208   70.7093 H   0  0  0  0  0  0  0  0  0  0  0  0
   -9.5633   13.2010   67.8770 H   0  0  0  0  0  0  0  0  0  0  0  0
  -13.3669   14.7508   66.5760 H   0  0  0  0  0  0  0  0  0  0  0  0
   -9.3846   11.8980   65.7832 H   0  0  0  0  0  0  0  0  0  0  0  0
  -13.1787   13.4415   64.4863 H   0  0  0  0  0  0  0  0  0  0  0  0
   -9.9866    4.5251   70.3188 H   0  0  0  0  0  0  0  0  0  0  0  0
   -9.1475    6.1077   70.2458 H   0  0  0  0  0  0  0  0  0  0  0  0
  -11.6206    5.3059   71.8365 H   0  0  0  0  0  0  0  0  0  0  0  0
  -10.2499    6.2766   72.3999 H   0  0  0  0  0  0  0  0  0  0  0  0
  -12.6221    7.4182   71.5403 H   0  0  0  0  0  0  0  0  0  0  0  0
  -13.6745    9.4531   70.8519 H   0  0  0  0  0  0  0  0  0  0  0  0
  -12.8505    9.6438   72.4365 H   0  0  0  0  0  0  0  0  0  0  0  0
  -13.1068   11.0735   71.3796 H   0  0  0  0  0  0  0  0  0  0  0  0
  -12.1489   15.7790   68.4113 H   0  0  0  0  0  0  0  0  0  0  0  0
  -10.5926   15.2003   68.9537 H   0  0  0  0  0  0  0  0  0  0  0  0
  -10.6391    8.7357   72.3094 H   0  0  0  0  0  0  0  0  0  0  0  0
   -9.9097    8.5211   70.6820 H   0  0  0  0  0  0  0  0  0  0  0  0
  -13.3072   13.8322   69.4502 H   0  0  0  0  0  0  0  0  0  0  0  0
  -12.5359    7.5033   69.0733 H   0  0  0  0  0  0  0  0  0  0  0  0
  -10.9087   12.8099   70.7423 H   0  0  0  0  0  0  0  0  0  0  0  0
  1  2  2  0  0  0  0
  1  3  1  0  0  0  0
  2  4  1  0  0  0  0
  3  5  2  0  0  0  0
  4 11  2  0  0  0  0
  5 11  1  0  0  0  0
  6  8  1  0  0  0  0
  6 10  2  0  0  0  0
  7  9  2  0  0  0  0
  7 10  1  0  0  0  0
  8 12  2  0  0  0  0
  9 12  1  0  0  0  0
 10 20  1  0  0  0  0
 11 22  1  0  0  0  0
 12 29  1  0  0  0  0
 13 16  1  0  0  0  0
 13 23  1  0  0  0  0
 13 26  2  0  0  0  0
 14 15  1  0  0  0  0
 14 24  1  0  0  0  0
 14 27  2  0  0  0  0
 15 25  1  0  0  0  0
 15 28  2  0  0  0  0
 16 17  1  0  0  0  0
 17 18  1  0  0  0  0
 18 21  1  0  0  0  0
 18 23  1  0  0  0  0
 19 25  1  0  0  0  0
 20 22  1  6  0  0  0
 21 25  1  0  0  0  0
 22 24  1  0  0  0  0
  1 30  1  0  0  0  0
  2 31  1  0  0  0  0
  3 32  1  0  0  0  0
  4 33  1  0  0  0  0
  5 34  1  0  0  0  0
  6 35  1  0  0  0  0
  7 36  1  0  0  0  0
  8 37  1  0  0  0  0
  9 38  1  0  0  0  0
 16 39  1  0  0  0  0
 16 40  1  0  0  0  0
 17 41  1  0  0  0  0
 17 42  1  0  0  0  0
 18 43  1  6  0  0  0
 19 44  1  0  0  0  0
 19 45  1  0  0  0  0
 19 46  1  0  0  0  0
 20 47  1  0  0  0  0
 20 48  1  0  0  0  0
 21 49  1  0  0  0  0
 21 50  1  0  0  0  0
 22 51  1  0  0  0  0
 23 52  1  0  0  0  0
 24 53  1  0  0  0  0
M  END
>  <idnumber>
Z2947765720

>  <Chemgauss4>
-13.9184589385986

>  <Hetero-Bemis-Murcko>
c1ccc(cc1)CC(c2ccccc2)NCCNCC3CCCN3

>  <Hetero-Bemis-Murcko>
c1ccc(cc1)CC(c2ccccc2)NCCNCC3CCCN3

>  <MW>
397.45

>  <HBD>
2

>  <HBA>
3

>  <RotBonds>
6

>  <XLogP>
1.89599967002869

>  <sLogP>
1.963

>  <TPSA>
78.5099945068359

>  <FSP3>
0.318

>  <QED>
0.732

$$$$
Z1152750941
  -OEChem-04242015583D

 71 75  0     1  0  0  0  0  0999 V2000
  -10.2719   13.0011   65.7764 C   0  0  0  0  0  0  0  0  0  0  0  0
  -12.2342   14.2983   65.4254 C   0  0  0  0  0  0  0  0  0  0  0  0
  -12.2127   12.1085   64.7309 C   0  0  0  0  0  0  0  0  0  0  0  0
  -10.9373   14.2151   65.9059 C   0  0  0  0  0  0  0  0  0  0  0  0
  -10.9147   11.9227   65.1787 C   0  0  0  0  0  0  0  0  0  0  0  0
  -10.2850   15.3761   66.5324 C   0  0  0  0  0  0  0  0  0  0  0  0
  -10.2369   10.6258   65.0220 C   0  0  0  0  0  0  0  0  0  0  0  0
  -13.9142   15.4089   72.8035 C   0  0  0  0  0  0  0  0  0  0  0  0
  -12.5610    7.7750   71.8921 C   0  0  0  0  0  0  0  0  0  0  0  0
  -12.6770   16.3000   72.8329 C   0  0  0  0  0  0  0  0  0  0  0  0
  -13.9895   14.5970   71.5148 C   0  0  0  0  0  0  0  0  0  0  0  0
  -12.1659    6.6604   70.9292 C   0  0  0  0  0  0  0  0  0  0  0  0
  -12.9400    9.0461   71.1399 C   0  0  0  0  0  0  0  0  0  0  0  0
  -10.0515   16.3540   70.0856 C   0  0  0  0  0  0  0  0  0  0  0  0
  -10.2619    7.6408   67.1958 C   0  0  0  0  0  0  0  0  0  0  0  0
   -9.8288   16.6561   68.6094 C   0  0  0  0  0  0  0  0  0  0  0  0
   -9.7213    8.3995   65.9909 C   0  0  0  0  0  0  0  0  0  0  0  0
  -11.2113   14.6946   68.8141 C   0  0  0  0  0  0  0  0  0  0  0  0
  -11.0631    9.8895   67.3251 C   0  0  0  0  0  0  0  0  0  0  0  0
  -11.4034   15.5057   72.5804 C   0  0  0  0  0  0  0  0  0  0  0  0
  -12.7101   13.8103   71.2679 C   0  0  0  0  0  0  0  0  0  0  0  0
  -11.0701    7.1054   69.9713 C   0  0  0  0  0  0  0  0  0  0  0  0
  -11.8417    9.4824   70.1809 C   0  0  0  0  0  0  0  0  0  0  0  0
  -11.3487   15.5574   70.0573 C   0  0  1  0  0  0  0  0  0  0  0  0
  -10.5228    8.7635   68.1905 C   0  0  1  0  0  0  0  0  0  0  0  0
  -12.8914   13.2727   64.8391 N   0  0  0  0  0  0  0  0  0  0  0  0
  -10.4284   15.5308   67.9025 N   0  0  0  0  0  0  0  0  0  0  0  0
  -10.3664    9.7056   66.0508 N   0  0  0  0  0  0  0  0  0  0  0  0
  -11.5043   14.7179   71.2966 N   0  3  0  0  0  0  0  0  0  0  0  0
  -11.5184    8.3476   69.2382 N   0  3  0  0  0  0  0  0  0  0  0  0
   -9.6626   16.1395   65.7966 O   0  0  0  0  0  0  0  0  0  0  0  0
   -9.5910   10.4469   63.9913 O   0  0  0  0  0  0  0  0  0  0  0  0
   -9.2529   12.8952   66.1415 H   0  0  0  0  0  0  0  0  0  0  0  0
  -12.8050   15.2192   65.4990 H   0  0  0  0  0  0  0  0  0  0  0  0
  -12.7659   11.3040   64.2557 H   0  0  0  0  0  0  0  0  0  0  0  0
  -13.9055   14.7331   73.6678 H   0  0  0  0  0  0  0  0  0  0  0  0
  -14.8145   16.0313   72.8958 H   0  0  0  0  0  0  0  0  0  0  0  0
  -13.4011    7.4475   72.5146 H   0  0  0  0  0  0  0  0  0  0  0  0
  -11.7238    7.9869   72.5685 H   0  0  0  0  0  0  0  0  0  0  0  0
  -12.7742   17.0859   72.0752 H   0  0  0  0  0  0  0  0  0  0  0  0
  -12.6096   16.8044   73.8050 H   0  0  0  0  0  0  0  0  0  0  0  0
  -14.8418   13.9077   71.5633 H   0  0  0  0  0  0  0  0  0  0  0  0
  -14.1744   15.2691   70.6692 H   0  0  0  0  0  0  0  0  0  0  0  0
  -11.8224    5.7895   71.4988 H   0  0  0  0  0  0  0  0  0  0  0  0
  -13.0456    6.3383   70.3581 H   0  0  0  0  0  0  0  0  0  0  0  0
  -13.8706    8.8805   70.5828 H   0  0  0  0  0  0  0  0  0  0  0  0
  -13.1398    9.8500   71.8573 H   0  0  0  0  0  0  0  0  0  0  0  0
   -9.2198   15.7501   70.4686 H   0  0  0  0  0  0  0  0  0  0  0  0
  -10.1297   17.2631   70.6892 H   0  0  0  0  0  0  0  0  0  0  0  0
  -11.1908    7.1258   66.9215 H   0  0  0  0  0  0  0  0  0  0  0  0
   -9.5511    6.9004   67.5746 H   0  0  0  0  0  0  0  0  0  0  0  0
  -10.3604   17.5629   68.2997 H   0  0  0  0  0  0  0  0  0  0  0  0
   -8.7721   16.7611   68.3458 H   0  0  0  0  0  0  0  0  0  0  0  0
   -8.6402    8.5604   66.0687 H   0  0  0  0  0  0  0  0  0  0  0  0
   -9.9351    7.9047   65.0387 H   0  0  0  0  0  0  0  0  0  0  0  0
  -10.6347   13.7797   68.9929 H   0  0  0  0  0  0  0  0  0  0  0  0
  -12.1766   14.4302   68.3722 H   0  0  0  0  0  0  0  0  0  0  0  0
  -12.1368    9.7952   67.1257 H   0  0  0  0  0  0  0  0  0  0  0  0
  -10.8611   10.8803   67.7429 H   0  0  0  0  0  0  0  0  0  0  0  0
  -10.5224   16.1632   72.4987 H   0  0  0  0  0  0  0  0  0  0  0  0
  -11.2302   14.7857   73.3955 H   0  0  0  0  0  0  0  0  0  0  0  0
  -12.5681   13.0496   72.0516 H   0  0  0  0  0  0  0  0  0  0  0  0
  -12.7241   13.3069   70.2873 H   0  0  0  0  0  0  0  0  0  0  0  0
  -10.1449    7.3485   70.4984 H   0  0  0  0  0  0  0  0  0  0  0  0
  -10.8824    6.3360   69.2201 H   0  0  0  0  0  0  0  0  0  0  0  0
  -12.1770   10.3240   69.5718 H   0  0  0  0  0  0  0  0  0  0  0  0
  -10.9227    9.7448   70.7096 H   0  0  0  0  0  0  0  0  0  0  0  0
  -12.2185   16.2243   69.9818 H   0  0  0  0  0  0  0  0  0  0  0  0
   -9.6029    9.0606   68.7071 H   0  0  0  0  0  0  0  0  0  0  0  0
  -10.6612   14.0761   71.2863 H   0  0  0  0  0  0  0  0  0  0  0  0
  -12.3927    8.1072   68.7460 H   0  0  0  0  0  0  0  0  0  0  0  0
  1  4  1  0  0  0  0
  1  5  2  0  0  0  0
  2  4  2  0  0  0  0
  2 26  1  0  0  0  0
  3  5  1  0  0  0  0
  3 26  2  0  0  0  0
  4  6  1  0  0  0  0
  5  7  1  0  0  0  0
  6 27  1  0  0  0  0
  6 31  2  0  0  0  0
  7 28  1  0  0  0  0
  7 32  2  0  0  0  0
  8 10  1  0  0  0  0
  8 11  1  0  0  0  0
  9 12  1  0  0  0  0
  9 13  1  0  0  0  0
 10 20  1  0  0  0  0
 11 21  1  0  0  0  0
 12 22  1  0  0  0  0
 13 23  1  0  0  0  0
 14 16  1  0  0  0  0
 14 24  1  0  0  0  0
 15 17  1  0  0  0  0
 15 25  1  0  0  0  0
 16 27  1  0  0  0  0
 17 28  1  0  0  0  0
 18 24  1  0  0  0  0
 18 27  1  0  0  0  0
 19 25  1  0  0  0  0
 19 28  1  0  0  0  0
 20 29  1  0  0  0  0
 21 29  1  0  0  0  0
 22 30  1  0  0  0  0
 23 30  1  0  0  0  0
 24 29  1  6  0  0  0
 25 30  1  6  0  0  0
  1 33  1  0  0  0  0
  2 34  1  0  0  0  0
  3 35  1  0  0  0  0
  8 36  1  0  0  0  0
  8 37  1  0  0  0  0
  9 38  1  0  0  0  0
  9 39  1  0  0  0  0
 10 40  1  0  0  0  0
 10 41  1  0  0  0  0
 11 42  1  0  0  0  0
 11 43  1  0  0  0  0
 12 44  1  0  0  0  0
 12 45  1  0  0  0  0
 13 46  1  0  0  0  0
 13 47  1  0  0  0  0
 14 48  1  0  0  0  0
 14 49  1  0  0  0  0
 15 50  1  0  0  0  0
 15 51  1  0  0  0  0
 16 52  1  0  0  0  0
 16 53  1  0  0  0  0
 17 54  1  0  0  0  0
 17 55  1  0  0  0  0
 18 56  1  0  0  0  0
 18 57  1  0  0  0  0
 19 58  1  0  0  0  0
 19 59  1  0  0  0  0
 20 60  1  0  0  0  0
 20 61  1  0  0  0  0
 21 62  1  0  0  0  0
 21 63  1  0  0  0  0
 22 64  1  0  0  0  0
 22 65  1  0  0  0  0
 23 66  1  0  0  0  0
 23 67  1  0  0  0  0
 24 68  1  0  0  0  0
 25 69  1  0  0  0  0
 29 70  1  0  0  0  0
 30 71  1  0  0  0  0
M  CHG  2  29   1  30   1
M  END
>  <idnumber>
Z1152750941

>  <Chemgauss4>
-13.9138736724854

>  <Hetero-Bemis-Murcko>
c1c(cncc1CN2CCC(C2)[NH+]3CCCCC3)CN4CCC(C4)[NH+]5CCCCC5

>  <Hetero-Bemis-Murcko>
c1c(cncc1CN2CCC(C2)[NH+]3CCCCC3)CN4CCC(C4)[NH+]5CCCCC5

>  <MW>
439.604

>  <HBD>
0

>  <HBA>
5

>  <RotBonds>
4

>  <XLogP>
1.72599983215332

>  <sLogP>
2.482

>  <TPSA>
62.3899993896484

>  <FSP3>
0.72

>  <QED>
0.721

$$$$
Z1694638110
  -OEChem-04242015583D

 51 54  0     1  0  0  0  0  0999 V2000
  -13.8455   15.6512   72.9542 C   0  0  0  0  0  0  0  0  0  0  0  0
  -12.5363   16.1218   73.0542 C   0  0  0  0  0  0  0  0  0  0  0  0
  -14.2771   15.0341   71.7800 C   0  0  0  0  0  0  0  0  0  0  0  0
  -11.6586   15.9753   71.9800 C   0  0  0  0  0  0  0  0  0  0  0  0
  -13.3994   14.8876   70.7059 C   0  0  0  0  0  0  0  0  0  0  0  0
  -12.1629    6.9169   70.9956 C   0  0  0  0  0  0  0  0  0  0  0  0
  -11.5706    6.2591   72.0775 C   0  0  0  0  0  0  0  0  0  0  0  0
  -10.3938    8.2787   72.7357 C   0  0  0  0  0  0  0  0  0  0  0  0
  -10.8982   10.2960   71.1607 C   0  0  0  0  0  0  0  0  0  0  0  0
  -10.9788    8.9628   71.6516 C   0  0  0  0  0  0  0  0  0  0  0  0
  -12.0901   15.3582   70.8058 C   0  0  0  0  0  0  0  0  0  0  0  0
  -11.8480    8.2675   70.8082 C   0  0  0  0  0  0  0  0  0  0  0  0
  -10.6995    6.9276   72.9354 C   0  0  0  0  0  0  0  0  0  0  0  0
  -11.7047   10.3826   70.0495 C   0  0  0  0  0  0  0  0  0  0  0  0
  -11.9569   11.5628   69.1830 C   0  0  0  0  0  0  0  0  0  0  0  0
  -10.4705   13.8363   67.6760 C   0  0  0  0  0  0  0  0  0  0  0  0
  -10.3095   13.0213   65.3456 C   0  0  0  0  0  0  0  0  0  0  0  0
  -12.1879   14.5013   65.9234 C   0  0  0  0  0  0  0  0  0  0  0  0
  -11.2920   12.1605   64.5644 C   0  0  0  0  0  0  0  0  0  0  0  0
  -13.0919   13.5809   65.1130 C   0  0  0  0  0  0  0  0  0  0  0  0
  -11.1412   15.1996   69.6433 C   0  0  0  0  0  0  0  0  0  0  0  0
  -11.4555   13.9640   68.8104 C   0  0  2  0  0  0  0  0  0  0  0  0
  -12.2736    9.1542   69.8450 N   0  0  0  0  0  0  0  0  0  0  0  0
  -11.0067   13.7689   66.3919 N   0  0  0  0  0  0  0  0  0  0  0  0
  -11.2956   12.7358   69.5341 N   0  0  0  0  0  0  0  0  0  0  0  0
  -12.7315   11.4571   68.2358 O   0  0  0  0  0  0  0  0  0  0  0  0
   -9.2630   13.7939   67.9247 O   0  0  0  0  0  0  0  0  0  0  0  0
  -12.3559   12.9668   64.0518 O   0  0  0  0  0  0  0  0  0  0  0  0
   -9.9903    6.0830   74.2592 Cl  0  0  0  0  0  0  0  0  0  0  0  0
  -14.5284   15.7642   73.7911 H   0  0  0  0  0  0  0  0  0  0  0  0
  -12.1998   16.6014   73.9687 H   0  0  0  0  0  0  0  0  0  0  0  0
  -15.2960   14.6666   71.7022 H   0  0  0  0  0  0  0  0  0  0  0  0
  -10.6403   16.3452   72.0668 H   0  0  0  0  0  0  0  0  0  0  0  0
  -13.7444   14.4056   69.7949 H   0  0  0  0  0  0  0  0  0  0  0  0
  -12.8404    6.3951   70.3280 H   0  0  0  0  0  0  0  0  0  0  0  0
  -11.8035    5.2086   72.2383 H   0  0  0  0  0  0  0  0  0  0  0  0
   -9.7141    8.8013   73.4037 H   0  0  0  0  0  0  0  0  0  0  0  0
  -10.3115   11.1030   71.5792 H   0  0  0  0  0  0  0  0  0  0  0  0
   -9.5104   12.4036   65.7659 H   0  0  0  0  0  0  0  0  0  0  0  0
   -9.8511   13.7665   64.6848 H   0  0  0  0  0  0  0  0  0  0  0  0
  -11.8141   15.3148   65.2906 H   0  0  0  0  0  0  0  0  0  0  0  0
  -12.7515   14.9461   66.7452 H   0  0  0  0  0  0  0  0  0  0  0  0
  -10.7858   11.6980   63.7112 H   0  0  0  0  0  0  0  0  0  0  0  0
  -11.7040   11.3549   65.1840 H   0  0  0  0  0  0  0  0  0  0  0  0
  -13.5467   12.8072   65.7429 H   0  0  0  0  0  0  0  0  0  0  0  0
  -13.9030   14.1604   64.6609 H   0  0  0  0  0  0  0  0  0  0  0  0
  -11.1989   16.1026   69.0206 H   0  0  0  0  0  0  0  0  0  0  0  0
  -10.1071   15.1690   70.0131 H   0  0  0  0  0  0  0  0  0  0  0  0
  -12.4593   13.9840   68.3852 H   0  0  0  0  0  0  0  0  0  0  0  0
  -12.9136    8.9273   69.0961 H   0  0  0  0  0  0  0  0  0  0  0  0
  -10.7176   12.7543   70.3740 H   0  0  0  0  0  0  0  0  0  0  0  0
  1  2  2  0  0  0  0
  1  3  1  0  0  0  0
  2  4  1  0  0  0  0
  3  5  2  0  0  0  0
  4 11  2  0  0  0  0
  5 11  1  0  0  0  0
  6  7  1  0  0  0  0
  6 12  2  0  0  0  0
  7 13  2  0  0  0  0
  8 10  2  0  0  0  0
  8 13  1  0  0  0  0
  9 10  1  0  0  0  0
  9 14  2  0  0  0  0
 10 12  1  0  0  0  0
 11 21  1  0  0  0  0
 12 23  1  0  0  0  0
 13 29  1  0  0  0  0
 14 15  1  0  0  0  0
 14 23  1  0  0  0  0
 15 25  1  0  0  0  0
 15 26  2  0  0  0  0
 16 22  1  0  0  0  0
 16 24  1  0  0  0  0
 16 27  2  0  0  0  0
 17 19  1  0  0  0  0
 17 24  1  0  0  0  0
 18 20  1  0  0  0  0
 18 24  1  0  0  0  0
 19 28  1  0  0  0  0
 20 28  1  0  0  0  0
 21 22  1  1  0  0  0
 22 25  1  0  0  0  0
  1 30  1  0  0  0  0
  2 31  1  0  0  0  0
  3 32  1  0  0  0  0
  4 33  1  0  0  0  0
  5 34  1  0  0  0  0
  6 35  1  0  0  0  0
  7 36  1  0  0  0  0
  8 37  1  0  0  0  0
  9 38  1  0  0  0  0
 17 39  1  0  0  0  0
 17 40  1  0  0  0  0
 18 41  1  0  0  0  0
 18 42  1  0  0  0  0
 19 43  1  0  0  0  0
 19 44  1  0  0  0  0
 20 45  1  0  0  0  0
 20 46  1  0  0  0  0
 21 47  1  0  0  0  0
 21 48  1  0  0  0  0
 22 49  1  0  0  0  0
 23 50  1  0  0  0  0
 25 51  1  0  0  0  0
M  END
>  <idnumber>
Z1694638110

>  <Chemgauss4>
-13.9136505126953

>  <Hetero-Bemis-Murcko>
c1ccc(cc1)CC(CN2CCOCC2)NCc3cc4ccccc4[nH]3

>  <Hetero-Bemis-Murcko>
c1ccc(cc1)CC(CN2CCOCC2)NCc3cc4ccccc4[nH]3

>  <MW>
411.889

>  <HBD>
2

>  <HBA>
3

>  <RotBonds>
5

>  <XLogP>
2.29399991035461

>  <sLogP>
3.021

>  <TPSA>
74.4300003051758

>  <FSP3>
0.273

>  <QED>
0.677

$$$$
Z2880086315
  -OEChem-04242015583D

 56 58  0     1  0  0  0  0  0999 V2000
  -12.8175   16.1307   73.4987 C   0  0  0  0  0  0  0  0  0  0  0  0
  -13.7411   15.1627   73.1046 C   0  0  0  0  0  0  0  0  0  0  0  0
  -11.7054   16.3995   72.7007 C   0  0  0  0  0  0  0  0  0  0  0  0
  -13.5527   14.4633   71.9125 C   0  0  0  0  0  0  0  0  0  0  0  0
  -11.5169   15.7002   71.5087 C   0  0  0  0  0  0  0  0  0  0  0  0
  -12.5924   13.7915   65.3748 C   0  0  0  0  0  0  0  0  0  0  0  0
  -11.3427   13.2399   65.4048 C   0  0  0  0  0  0  0  0  0  0  0  0
  -12.4406   14.7321   71.1145 C   0  0  0  0  0  0  0  0  0  0  0  0
  -11.6870   14.2578   67.3403 C   0  0  0  0  0  0  0  0  0  0  0  0
  -10.8942   10.4635   69.7134 C   0  0  0  0  0  0  0  0  0  0  0  0
  -11.7299   11.6079   69.2751 C   0  0  0  0  0  0  0  0  0  0  0  0
  -12.8051    9.8274   71.2152 C   0  0  0  0  0  0  0  0  0  0  0  0
  -10.6879    8.5387   71.2427 C   0  0  0  0  0  0  0  0  0  0  0  0
  -13.3273    8.5979   71.9466 C   0  0  0  0  0  0  0  0  0  0  0  0
  -11.3924    7.1669   71.1001 C   0  0  0  0  0  0  0  0  0  0  0  0
  -10.9157    6.2409   72.2281 C   0  0  0  0  0  0  0  0  0  0  0  0
  -11.0664    6.5506   69.7298 C   0  0  0  0  0  0  0  0  0  0  0  0
  -13.7418    6.1683   71.5535 C   0  0  0  0  0  0  0  0  0  0  0  0
  -11.4860   14.7896   68.7410 C   0  0  0  0  0  0  0  0  0  0  0  0
  -12.2346   13.9706   69.8162 C   0  0  1  0  0  0  0  0  0  0  0  0
  -12.7791   14.4146   66.5852 N   0  0  0  0  0  0  0  0  0  0  0  0
  -10.8055   13.5442   66.6324 N   0  3  0  0  0  0  0  0  0  0  0  0
  -11.4642    9.6289   70.6641 N   0  0  0  0  0  0  0  0  0  0  0  0
  -11.5333   12.7290   70.0520 N   0  0  0  0  0  0  0  0  0  0  0  0
  -12.9256    7.3715   71.1573 N   0  3  1  0  0  0  0  0  0  0  0  0
   -9.7886   10.3808   69.1959 O   0  0  0  0  0  0  0  0  0  0  0  0
  -12.4842   11.4922   68.3197 O   0  0  0  0  0  0  0  0  0  0  0  0
  -12.9651   16.6761   74.4263 H   0  0  0  0  0  0  0  0  0  0  0  0
  -14.6076   14.9540   73.7253 H   0  0  0  0  0  0  0  0  0  0  0  0
  -10.9867   17.1539   73.0067 H   0  0  0  0  0  0  0  0  0  0  0  0
  -14.2774   13.7106   71.6135 H   0  0  0  0  0  0  0  0  0  0  0  0
  -10.6475   15.9162   70.8934 H   0  0  0  0  0  0  0  0  0  0  0  0
  -13.3934   13.8367   64.6640 H   0  0  0  0  0  0  0  0  0  0  0  0
  -10.7420   12.6665   64.7273 H   0  0  0  0  0  0  0  0  0  0  0  0
  -13.4688   10.0867   70.3745 H   0  0  0  0  0  0  0  0  0  0  0  0
  -12.8133   10.6918   71.8964 H   0  0  0  0  0  0  0  0  0  0  0  0
  -10.4595    8.7307   72.2981 H   0  0  0  0  0  0  0  0  0  0  0  0
   -9.7197    8.5277   70.7201 H   0  0  0  0  0  0  0  0  0  0  0  0
  -12.9178    8.5128   72.9491 H   0  0  0  0  0  0  0  0  0  0  0  0
  -14.4139    8.6220   71.9857 H   0  0  0  0  0  0  0  0  0  0  0  0
  -11.4059    5.2764   72.1344 H   0  0  0  0  0  0  0  0  0  0  0  0
  -11.1654    6.6835   73.1878 H   0  0  0  0  0  0  0  0  0  0  0  0
   -9.8400    6.1102   72.1570 H   0  0  0  0  0  0  0  0  0  0  0  0
  -11.5647    5.5907   69.6408 H   0  0  0  0  0  0  0  0  0  0  0  0
   -9.9933    6.4141   69.6444 H   0  0  0  0  0  0  0  0  0  0  0  0
  -11.4134    7.2161   68.9459 H   0  0  0  0  0  0  0  0  0  0  0  0
  -13.4847    5.9148   72.5836 H   0  0  0  0  0  0  0  0  0  0  0  0
  -14.7964    6.4366   71.4668 H   0  0  0  0  0  0  0  0  0  0  0  0
  -13.4870    5.3531   70.8736 H   0  0  0  0  0  0  0  0  0  0  0  0
  -11.8376   15.8308   68.7543 H   0  0  0  0  0  0  0  0  0  0  0  0
  -10.4122   14.8431   68.9645 H   0  0  0  0  0  0  0  0  0  0  0  0
  -13.2196   13.6946   69.4184 H   0  0  0  0  0  0  0  0  0  0  0  0
  -13.6175   14.9168   66.8641 H   0  0  0  0  0  0  0  0  0  0  0  0
   -9.8811   13.2692   66.9534 H   0  0  0  0  0  0  0  0  0  0  0  0
  -10.8698   12.6809   70.8199 H   0  0  0  0  0  0  0  0  0  0  0  0
  -13.1994    7.5766   70.1787 H   0  0  0  0  0  0  0  0  0  0  0  0
  1  2  2  0  0  0  0
  1  3  1  0  0  0  0
  2  4  1  0  0  0  0
  3  5  2  0  0  0  0
  4  8  2  0  0  0  0
  5  8  1  0  0  0  0
  6  7  2  0  0  0  0
  6 21  1  0  0  0  0
  7 22  1  0  0  0  0
  8 20  1  0  0  0  0
  9 19  1  0  0  0  0
  9 21  1  0  0  0  0
  9 22  2  0  0  0  0
 10 11  1  0  0  0  0
 10 23  1  0  0  0  0
 10 26  2  0  0  0  0
 11 24  1  0  0  0  0
 11 27  2  0  0  0  0
 12 14  1  0  0  0  0
 12 23  1  0  0  0  0
 13 15  1  0  0  0  0
 13 23  1  0  0  0  0
 14 25  1  0  0  0  0
 15 16  1  0  0  0  0
 15 17  1  0  0  0  0
 15 25  1  0  0  0  0
 18 25  1  6  0  0  0
 19 20  1  6  0  0  0
 20 24  1  0  0  0  0
  1 28  1  0  0  0  0
  2 29  1  0  0  0  0
  3 30  1  0  0  0  0
  4 31  1  0  0  0  0
  5 32  1  0  0  0  0
  6 33  1  0  0  0  0
  7 34  1  0  0  0  0
 12 35  1  0  0  0  0
 12 36  1  0  0  0  0
 13 37  1  0  0  0  0
 13 38  1  0  0  0  0
 14 39  1  0  0  0  0
 14 40  1  0  0  0  0
 16 41  1  0  0  0  0
 16 42  1  0  0  0  0
 16 43  1  0  0  0  0
 17 44  1  0  0  0  0
 17 45  1  0  0  0  0
 17 46  1  0  0  0  0
 18 47  1  0  0  0  0
 18 48  1  0  0  0  0
 18 49  1  0  0  0  0
 19 50  1  0  0  0  0
 19 51  1  0  0  0  0
 20 52  1  0  0  0  0
 21 53  1  0  0  0  0
 22 54  1  0  0  0  0
 24 55  1  0  0  0  0
 25 56  1  0  0  0  0
M  CHG  2  22   1  25   1
M  END
>  <idnumber>
Z2880086315

>  <Chemgauss4>
-13.9107122421265

>  <Hetero-Bemis-Murcko>
c1ccc(cc1)C(Cc2[nH]cc[nH+]2)NCCN3CC[NH2+]CC3

>  <Hetero-Bemis-Murcko>
c1ccc(cc1)C(Cc2[nH]cc[nH+]2)NCCN3CC[NH2+]CC3

>  <MW>
369.469

>  <HBD>
2

>  <HBA>
4

>  <RotBonds>
4

>  <XLogP>
1.30099987983704

>  <sLogP>
1.362

>  <TPSA>
83.7799987792969

>  <FSP3>
0.45

>  <QED>
0.798

$$$$
Z1656938298
  -OEChem-04242015583D

 52 54  0     1  0  0  0  0  0999 V2000
  -13.0669   16.4406   72.8027 C   0  0  0  0  0  0  0  0  0  0  0  0
  -13.9585   15.3759   72.6721 C   0  0  0  0  0  0  0  0  0  0  0  0
  -11.9446   16.5158   71.9777 C   0  0  0  0  0  0  0  0  0  0  0  0
  -13.7278   14.3863   71.7165 C   0  0  0  0  0  0  0  0  0  0  0  0
  -11.7140   15.5262   71.0221 C   0  0  0  0  0  0  0  0  0  0  0  0
  -12.9114   12.8945   64.9956 C   0  0  0  0  0  0  0  0  0  0  0  0
  -12.7604   11.8606   64.0662 C   0  0  0  0  0  0  0  0  0  0  0  0
  -10.5598   13.5372   64.7785 C   0  0  0  0  0  0  0  0  0  0  0  0
  -12.6055   14.4615   70.8915 C   0  0  0  0  0  0  0  0  0  0  0  0
  -11.8235   13.7234   65.3476 C   0  0  0  0  0  0  0  0  0  0  0  0
  -11.5078   11.6969   63.5196 C   0  0  0  0  0  0  0  0  0  0  0  0
  -10.4357   12.5136   63.8666 C   0  0  0  0  0  0  0  0  0  0  0  0
   -9.6834   10.9938   62.3282 C   0  0  0  0  0  0  0  0  0  0  0  0
  -11.6766   10.9975   69.8949 C   0  0  0  0  0  0  0  0  0  0  0  0
  -11.6125   13.9365   68.6429 C   0  0  0  0  0  0  0  0  0  0  0  0
  -12.5514    8.4330   71.2982 C   0  0  0  0  0  0  0  0  0  0  0  0
  -10.1561    7.7084   71.3169 C   0  0  0  0  0  0  0  0  0  0  0  0
  -12.0295   14.8220   66.3501 C   0  0  0  0  0  0  0  0  0  0  0  0
  -10.7272   10.0526   70.6158 C   0  0  0  0  0  0  0  0  0  0  0  0
  -12.3549   13.3897   69.8563 C   0  0  1  0  0  0  0  0  0  0  0  0
  -11.1912    8.5883   70.6131 C   0  0  0  0  0  0  0  0  0  0  0  0
  -11.0653   10.7640   62.5816 N   0  0  0  0  0  0  0  0  0  0  0  0
   -9.3146   12.0976   63.1484 N   0  0  0  0  0  0  0  0  0  0  0  0
  -12.4787   14.3128   67.6258 N   0  0  0  0  0  0  0  0  0  0  0  0
  -11.5820   12.2910   70.3877 N   0  0  0  0  0  0  0  0  0  0  0  0
   -8.9612   10.3710   61.5632 O   0  0  0  0  0  0  0  0  0  0  0  0
  -12.4087   10.6452   68.9741 O   0  0  0  0  0  0  0  0  0  0  0  0
  -10.3858   13.9906   68.5806 O   0  0  0  0  0  0  0  0  0  0  0  0
  -13.2474   17.2118   73.5459 H   0  0  0  0  0  0  0  0  0  0  0  0
  -14.8329   15.3178   73.3137 H   0  0  0  0  0  0  0  0  0  0  0  0
  -11.2509   17.3452   72.0784 H   0  0  0  0  0  0  0  0  0  0  0  0
  -14.4277   13.5603   71.6220 H   0  0  0  0  0  0  0  0  0  0  0  0
  -10.8369   15.5930   70.3838 H   0  0  0  0  0  0  0  0  0  0  0  0
  -13.8856   13.0581   65.4512 H   0  0  0  0  0  0  0  0  0  0  0  0
  -13.5944   11.2241   63.7957 H   0  0  0  0  0  0  0  0  0  0  0  0
   -9.7186   14.1679   65.0428 H   0  0  0  0  0  0  0  0  0  0  0  0
  -12.5017    8.7753   72.3375 H   0  0  0  0  0  0  0  0  0  0  0  0
  -12.8756    7.3878   71.3110 H   0  0  0  0  0  0  0  0  0  0  0  0
  -13.3228    9.0193   70.7873 H   0  0  0  0  0  0  0  0  0  0  0  0
  -10.0241    8.0203   72.3585 H   0  0  0  0  0  0  0  0  0  0  0  0
  -10.4746    6.6606   71.3213 H   0  0  0  0  0  0  0  0  0  0  0  0
   -9.1816    7.7649   70.8197 H   0  0  0  0  0  0  0  0  0  0  0  0
  -11.0974   15.3730   66.5161 H   0  0  0  0  0  0  0  0  0  0  0  0
  -12.7745   15.5423   65.9960 H   0  0  0  0  0  0  0  0  0  0  0  0
  -10.5848   10.4035   71.6455 H   0  0  0  0  0  0  0  0  0  0  0  0
   -9.7593   10.1353   70.1046 H   0  0  0  0  0  0  0  0  0  0  0  0
  -13.3021   12.9479   69.5241 H   0  0  0  0  0  0  0  0  0  0  0  0
  -11.2850    8.2355   69.5784 H   0  0  0  0  0  0  0  0  0  0  0  0
  -11.6425   10.0474   62.1593 H   0  0  0  0  0  0  0  0  0  0  0  0
   -8.3922   12.5117   63.2014 H   0  0  0  0  0  0  0  0  0  0  0  0
  -13.4808   14.2305   67.7695 H   0  0  0  0  0  0  0  0  0  0  0  0
  -10.9419   12.4733   71.1550 H   0  0  0  0  0  0  0  0  0  0  0  0
  1  2  2  0  0  0  0
  1  3  1  0  0  0  0
  2  4  1  0  0  0  0
  3  5  2  0  0  0  0
  4  9  2  0  0  0  0
  5  9  1  0  0  0  0
  6  7  1  0  0  0  0
  6 10  2  0  0  0  0
  7 11  2  0  0  0  0
  8 10  1  0  0  0  0
  8 12  2  0  0  0  0
  9 20  1  0  0  0  0
 10 18  1  0  0  0  0
 11 12  1  0  0  0  0
 11 22  1  0  0  0  0
 12 23  1  0  0  0  0
 13 22  1  0  0  0  0
 13 23  1  0  0  0  0
 13 26  2  0  0  0  0
 14 19  1  0  0  0  0
 14 25  1  0  0  0  0
 14 27  2  0  0  0  0
 15 20  1  6  0  0  0
 15 24  1  0  0  0  0
 15 28  2  0  0  0  0
 16 21  1  0  0  0  0
 17 21  1  0  0  0  0
 18 24  1  0  0  0  0
 19 21  1  0  0  0  0
 20 25  1  0  0  0  0
  1 29  1  0  0  0  0
  2 30  1  0  0  0  0
  3 31  1  0  0  0  0
  4 32  1  0  0  0  0
  5 33  1  0  0  0  0
  6 34  1  0  0  0  0
  7 35  1  0  0  0  0
  8 36  1  0  0  0  0
 16 37  1  0  0  0  0
 16 38  1  0  0  0  0
 16 39  1  0  0  0  0
 17 40  1  0  0  0  0
 17 41  1  0  0  0  0
 17 42  1  0  0  0  0
 18 43  1  0  0  0  0
 18 44  1  0  0  0  0
 19 45  1  0  0  0  0
 19 46  1  0  0  0  0
 20 47  1  0  0  0  0
 21 48  1  0  0  0  0
 22 49  1  0  0  0  0
 23 50  1  0  0  0  0
 24 51  1  0  0  0  0
 25 52  1  0  0  0  0
M  END
>  <idnumber>
Z1656938298

>  <Chemgauss4>
-13.9083681106567

>  <Hetero-Bemis-Murcko>
c1[nH]c2ccc(cc2[nH]1)CNCCc3ccccc3

>  <Hetero-Bemis-Murcko>
c1[nH]c2ccc(cc2[nH]1)CNCCc3ccccc3

>  <MW>
380.448

>  <HBD>
4

>  <HBA>
3

>  <RotBonds>
7

>  <XLogP>
2.36299991607666

>  <sLogP>
2.376

>  <TPSA>
106.849998474121

>  <FSP3>
0.286

>  <QED>
0.505

$$$$
Z2070089334
  -OEChem-04242015583D

 58 61  0     1  0  0  0  0  0999 V2000
  -12.4816   13.2273   64.6369 C   0  0  0  0  0  0  0  0  0  0  0  0
  -12.6057   16.0346   73.4272 C   0  0  0  0  0  0  0  0  0  0  0  0
  -11.3211   12.8401   65.3069 C   0  0  0  0  0  0  0  0  0  0  0  0
  -13.3693   14.1197   65.2382 C   0  0  0  0  0  0  0  0  0  0  0  0
  -13.4904   15.0015   73.1180 C   0  0  0  0  0  0  0  0  0  0  0  0
  -11.5973   16.3818   72.5282 C   0  0  0  0  0  0  0  0  0  0  0  0
  -11.0483   13.3451   66.5783 C   0  0  0  0  0  0  0  0  0  0  0  0
  -13.0965   14.6247   66.5095 C   0  0  0  0  0  0  0  0  0  0  0  0
  -13.3666   14.3155   71.9098 C   0  0  0  0  0  0  0  0  0  0  0  0
  -11.4734   15.6958   71.3201 C   0  0  0  0  0  0  0  0  0  0  0  0
   -8.6616    7.6527   67.9876 C   0  0  0  0  0  0  0  0  0  0  0  0
   -8.7454    7.3758   66.6449 C   0  0  0  0  0  0  0  0  0  0  0  0
  -11.9360   14.2374   67.1795 C   0  0  0  0  0  0  0  0  0  0  0  0
  -12.3581   14.6626   71.0108 C   0  0  0  0  0  0  0  0  0  0  0  0
  -10.0005    7.7141   68.4184 C   0  0  0  0  0  0  0  0  0  0  0  0
  -11.6115   11.5932   69.0866 C   0  0  0  0  0  0  0  0  0  0  0  0
  -11.8544    7.0145   71.7486 C   0  0  0  0  0  0  0  0  0  0  0  0
  -12.6545    8.3045   71.8396 C   0  0  0  0  0  0  0  0  0  0  0  0
  -11.3317    6.7962   70.3347 C   0  0  0  0  0  0  0  0  0  0  0  0
  -11.8397    9.4969   71.3701 C   0  0  0  0  0  0  0  0  0  0  0  0
  -10.5081    7.9916   69.8221 C   0  0  2  0  0  0  0  0  0  0  0  0
  -11.6411   14.7849   68.5574 C   0  0  0  0  0  0  0  0  0  0  0  0
  -10.6376   10.5013   69.4519 C   0  0  0  0  0  0  0  0  0  0  0  0
  -12.2225   13.9157   69.6949 C   0  0  1  0  0  0  0  0  0  0  0  0
  -10.8709    7.4940   67.4296 N   0  0  0  0  0  0  0  0  0  0  0  0
  -10.0773    7.2917   66.3640 N   0  0  0  0  0  0  0  0  0  0  0  0
  -11.4150   12.7301   69.8561 N   0  0  0  0  0  0  0  0  0  0  0  0
  -11.3520    9.2679   69.9539 N   0  3  2  0  0  0  0  0  0  0  0  0
  -12.4646   11.4707   68.2117 O   0  0  0  0  0  0  0  0  0  0  0  0
  -12.6931   12.8351   63.6465 H   0  0  0  0  0  0  0  0  0  0  0  0
  -12.7031   16.5696   74.3674 H   0  0  0  0  0  0  0  0  0  0  0  0
  -10.6293   12.1461   64.8385 H   0  0  0  0  0  0  0  0  0  0  0  0
  -14.2723   14.4222   64.7164 H   0  0  0  0  0  0  0  0  0  0  0  0
  -14.2764   14.7318   73.8174 H   0  0  0  0  0  0  0  0  0  0  0  0
  -10.9090   17.1868   72.7682 H   0  0  0  0  0  0  0  0  0  0  0  0
  -10.1418   13.0376   67.0929 H   0  0  0  0  0  0  0  0  0  0  0  0
  -13.7939   15.3193   66.9702 H   0  0  0  0  0  0  0  0  0  0  0  0
  -14.0603   13.5118   71.6774 H   0  0  0  0  0  0  0  0  0  0  0  0
  -10.6846   15.9731   70.6258 H   0  0  0  0  0  0  0  0  0  0  0  0
   -7.7596    7.7897   68.5661 H   0  0  0  0  0  0  0  0  0  0  0  0
   -7.9939    7.2347   65.8815 H   0  0  0  0  0  0  0  0  0  0  0  0
  -11.0118    7.0519   72.4501 H   0  0  0  0  0  0  0  0  0  0  0  0
  -12.4816    6.1668   72.0465 H   0  0  0  0  0  0  0  0  0  0  0  0
  -13.5680    8.2180   71.2380 H   0  0  0  0  0  0  0  0  0  0  0  0
  -12.9726    8.4651   72.8760 H   0  0  0  0  0  0  0  0  0  0  0  0
  -10.7163    5.8875   70.3195 H   0  0  0  0  0  0  0  0  0  0  0  0
  -12.1772    6.6057   69.6595 H   0  0  0  0  0  0  0  0  0  0  0  0
  -12.4571   10.4013   71.3618 H   0  0  0  0  0  0  0  0  0  0  0  0
  -10.9583    9.6616   72.0001 H   0  0  0  0  0  0  0  0  0  0  0  0
   -9.6297    8.1428   70.4732 H   0  0  0  0  0  0  0  0  0  0  0  0
  -12.0642   15.7979   68.6095 H   0  0  0  0  0  0  0  0  0  0  0  0
  -10.5576   14.9164   68.6777 H   0  0  0  0  0  0  0  0  0  0  0  0
   -9.9729   10.8339   70.2539 H   0  0  0  0  0  0  0  0  0  0  0  0
  -10.0566   10.2007   68.5755 H   0  0  0  0  0  0  0  0  0  0  0  0
  -13.2185   13.5684   69.3914 H   0  0  0  0  0  0  0  0  0  0  0  0
  -10.5132    7.0996   65.4707 H   0  0  0  0  0  0  0  0  0  0  0  0
  -10.6974   12.7315   70.5754 H   0  0  0  0  0  0  0  0  0  0  0  0
  -12.1838    9.1489   69.3627 H   0  0  0  0  0  0  0  0  0  0  0  0
  1  3  2  0  0  0  0
  1  4  1  0  0  0  0
  2  5  2  0  0  0  0
  2  6  1  0  0  0  0
  3  7  1  0  0  0  0
  4  8  2  0  0  0  0
  5  9  1  0  0  0  0
  6 10  2  0  0  0  0
  7 13  2  0  0  0  0
  8 13  1  0  0  0  0
  9 14  2  0  0  0  0
 10 14  1  0  0  0  0
 11 12  2  0  0  0  0
 11 15  1  0  0  0  0
 12 26  1  0  0  0  0
 13 22  1  0  0  0  0
 14 24  1  0  0  0  0
 15 21  1  1  0  0  0
 15 25  2  0  0  0  0
 16 23  1  0  0  0  0
 16 27  1  0  0  0  0
 16 29  2  0  0  0  0
 17 18  1  0  0  0  0
 17 19  1  0  0  0  0
 18 20  1  0  0  0  0
 19 21  1  0  0  0  0
 20 28  1  0  0  0  0
 21 28  1  0  0  0  0
 22 24  1  6  0  0  0
 23 28  1  1  0  0  0
 24 27  1  0  0  0  0
 25 26  1  0  0  0  0
  1 30  1  0  0  0  0
  2 31  1  0  0  0  0
  3 32  1  0  0  0  0
  4 33  1  0  0  0  0
  5 34  1  0  0  0  0
  6 35  1  0  0  0  0
  7 36  1  0  0  0  0
  8 37  1  0  0  0  0
  9 38  1  0  0  0  0
 10 39  1  0  0  0  0
 11 40  1  0  0  0  0
 12 41  1  0  0  0  0
 17 42  1  0  0  0  0
 17 43  1  0  0  0  0
 18 44  1  0  0  0  0
 18 45  1  0  0  0  0
 19 46  1  0  0  0  0
 19 47  1  0  0  0  0
 20 48  1  0  0  0  0
 20 49  1  0  0  0  0
 21 50  1  0  0  0  0
 22 51  1  0  0  0  0
 22 52  1  0  0  0  0
 23 53  1  0  0  0  0
 23 54  1  0  0  0  0
 24 55  1  0  0  0  0
 26 56  1  0  0  0  0
 27 57  1  0  0  0  0
 28 58  1  0  0  0  0
M  CHG  1  28   1
M  END
>  <idnumber>
Z2070089334

>  <Chemgauss4>
-13.9020872116089

>  <Hetero-Bemis-Murcko>
c1ccc(cc1)CC(c2ccccc2)NCC[NH+]3CCCCC3c4cc[nH]n4

>  <Hetero-Bemis-Murcko>
c1ccc(cc1)CC(c2ccccc2)NCC[NH+]3CCCCC3c4cc[nH]n4

>  <MW>
388.515

>  <HBD>
2

>  <HBA>
3

>  <RotBonds>
7

>  <XLogP>
4.04400014877319

>  <sLogP>
4.037

>  <TPSA>
62.2200012207031

>  <FSP3>
0.333

>  <QED>
0.642

$$$$
Z4012392038
  -OEChem-04242015583D

 58 61  0     1  0  0  0  0  0999 V2000
  -12.9023   14.4564   73.6611 C   0  0  0  0  0  0  0  0  0  0  0  0
  -12.5375   15.7946   73.7578 C   0  0  0  0  0  0  0  0  0  0  0  0
  -10.6250   12.9242   65.8230 C   0  0  0  0  0  0  0  0  0  0  0  0
  -12.9101   13.5822   65.3961 C   0  0  0  0  0  0  0  0  0  0  0  0
  -10.6817   13.5389   67.0738 C   0  0  0  0  0  0  0  0  0  0  0  0
  -12.9669   14.1968   66.6470 C   0  0  0  0  0  0  0  0  0  0  0  0
  -12.8613   13.8179   72.4266 C   0  0  0  0  0  0  0  0  0  0  0  0
  -12.1422   16.4444   72.5997 C   0  0  0  0  0  0  0  0  0  0  0  0
  -11.7392   12.9459   64.9841 C   0  0  0  0  0  0  0  0  0  0  0  0
  -11.8526   14.1751   67.4858 C   0  0  0  0  0  0  0  0  0  0  0  0
  -12.4517   14.5562   71.3280 C   0  0  0  0  0  0  0  0  0  0  0  0
  -10.7744   10.5520   69.4015 C   0  0  0  0  0  0  0  0  0  0  0  0
  -11.7729   11.6267   69.1839 C   0  0  0  0  0  0  0  0  0  0  0  0
  -10.9740    7.1823   70.4436 C   0  0  0  0  0  0  0  0  0  0  0  0
   -9.8540    8.5952   72.1844 C   0  0  0  0  0  0  0  0  0  0  0  0
  -12.2560    7.1472   71.2962 C   0  0  0  0  0  0  0  0  0  0  0  0
  -11.1359    8.5627   73.0374 C   0  0  0  0  0  0  0  0  0  0  0  0
  -12.3609    9.6443   71.1395 C   0  0  0  0  0  0  0  0  0  0  0  0
  -10.2118    8.4970   70.6902 C   0  0  0  0  0  0  0  0  0  0  0  0
  -12.3573    8.4513   72.1074 C   0  0  0  0  0  0  0  0  0  0  0  0
  -11.6794   12.2890   63.6466 C   0  0  0  0  0  0  0  0  0  0  0  0
  -11.9138   14.8395   68.8424 C   0  0  0  0  0  0  0  0  0  0  0  0
  -12.3949   13.8912   69.9633 C   0  0  1  0  0  0  0  0  0  0  0  0
  -12.0897   15.8576   71.3829 N   0  0  0  0  0  0  0  0  0  0  0  0
  -11.1125    9.6165   70.3618 N   0  0  0  0  0  0  0  0  0  0  0  0
  -11.5528   12.7169   69.9962 N   0  0  0  0  0  0  0  0  0  0  0  0
  -13.6006    8.4494   72.9086 N   0  3  0  0  0  0  0  0  0  0  0  0
   -9.7649   10.6042   68.7134 O   0  0  0  0  0  0  0  0  0  0  0  0
  -12.6601   11.4850   68.3559 O   0  0  0  0  0  0  0  0  0  0  0  0
  -13.2180   13.9122   74.5462 H   0  0  0  0  0  0  0  0  0  0  0  0
  -12.5618   16.3126   74.7097 H   0  0  0  0  0  0  0  0  0  0  0  0
   -9.7083   12.4314   65.5100 H   0  0  0  0  0  0  0  0  0  0  0  0
  -13.7833   13.6028   64.7492 H   0  0  0  0  0  0  0  0  0  0  0  0
   -9.8093   13.5157   67.7215 H   0  0  0  0  0  0  0  0  0  0  0  0
  -13.8830   14.6905   66.9601 H   0  0  0  0  0  0  0  0  0  0  0  0
  -13.1434   12.7743   72.3377 H   0  0  0  0  0  0  0  0  0  0  0  0
  -11.8478   17.4885   72.6217 H   0  0  0  0  0  0  0  0  0  0  0  0
  -10.3393    6.3237   70.6937 H   0  0  0  0  0  0  0  0  0  0  0  0
  -11.2293    7.0857   69.3814 H   0  0  0  0  0  0  0  0  0  0  0  0
   -9.2980    9.5198   72.3812 H   0  0  0  0  0  0  0  0  0  0  0  0
   -9.1966    7.7659   72.4720 H   0  0  0  0  0  0  0  0  0  0  0  0
  -13.1261    7.0260   70.6390 H   0  0  0  0  0  0  0  0  0  0  0  0
  -12.2322    6.2732   71.9588 H   0  0  0  0  0  0  0  0  0  0  0  0
  -11.0926    7.7150   73.7325 H   0  0  0  0  0  0  0  0  0  0  0  0
  -11.1896    9.4732   73.6472 H   0  0  0  0  0  0  0  0  0  0  0  0
  -13.2011    9.5972   70.4367 H   0  0  0  0  0  0  0  0  0  0  0  0
  -12.4103   10.6024   71.6704 H   0  0  0  0  0  0  0  0  0  0  0  0
   -9.3071    8.5377   70.0752 H   0  0  0  0  0  0  0  0  0  0  0  0
  -11.9953   11.2412   63.7211 H   0  0  0  0  0  0  0  0  0  0  0  0
  -12.3298   12.7978   62.9232 H   0  0  0  0  0  0  0  0  0  0  0  0
  -10.6625   12.3173   63.2339 H   0  0  0  0  0  0  0  0  0  0  0  0
  -12.5966   15.6969   68.7614 H   0  0  0  0  0  0  0  0  0  0  0  0
  -10.9339   15.2710   69.0861 H   0  0  0  0  0  0  0  0  0  0  0  0
  -13.4026   13.5378   69.7098 H   0  0  0  0  0  0  0  0  0  0  0  0
  -10.7694   12.6949   70.6427 H   0  0  0  0  0  0  0  0  0  0  0  0
  -13.3992    8.5826   73.9070 H   0  0  0  0  0  0  0  0  0  0  0  0
  -14.1054    7.5603   72.8077 H   0  0  0  0  0  0  0  0  0  0  0  0
  -14.2333    9.2032   72.6141 H   0  0  0  0  0  0  0  0  0  0  0  0
  1  2  2  0  0  0  0
  1  7  1  0  0  0  0
  2  8  1  0  0  0  0
  3  5  1  0  0  0  0
  3  9  2  0  0  0  0
  4  6  2  0  0  0  0
  4  9  1  0  0  0  0
  5 10  2  0  0  0  0
  6 10  1  0  0  0  0
  7 11  2  0  0  0  0
  8 24  2  0  0  0  0
  9 21  1  0  0  0  0
 10 22  1  0  0  0  0
 11 23  1  0  0  0  0
 11 24  1  0  0  0  0
 12 13  1  0  0  0  0
 12 25  1  0  0  0  0
 12 28  2  0  0  0  0
 13 26  1  0  0  0  0
 13 29  2  0  0  0  0
 14 16  1  0  0  0  0
 14 19  1  0  0  0  0
 15 17  1  0  0  0  0
 15 19  1  0  0  0  0
 16 20  1  0  0  0  0
 17 20  1  0  0  0  0
 18 20  1  0  0  0  0
 18 25  1  0  0  0  0
 19 25  1  0  0  0  0
 20 27  1  0  0  0  0
 22 23  1  1  0  0  0
 23 26  1  0  0  0  0
  1 30  1  0  0  0  0
  2 31  1  0  0  0  0
  3 32  1  0  0  0  0
  4 33  1  0  0  0  0
  5 34  1  0  0  0  0
  6 35  1  0  0  0  0
  7 36  1  0  0  0  0
  8 37  1  0  0  0  0
 14 38  1  0  0  0  0
 14 39  1  0  0  0  0
 15 40  1  0  0  0  0
 15 41  1  0  0  0  0
 16 42  1  0  0  0  0
 16 43  1  0  0  0  0
 17 44  1  0  0  0  0
 17 45  1  0  0  0  0
 18 46  1  0  0  0  0
 18 47  1  0  0  0  0
 19 48  1  0  0  0  0
 21 49  1  0  0  0  0
 21 50  1  0  0  0  0
 21 51  1  0  0  0  0
 22 52  1  0  0  0  0
 22 53  1  0  0  0  0
 23 54  1  0  0  0  0
 26 55  1  0  0  0  0
 27 56  1  0  0  0  0
 27 57  1  0  0  0  0
 27 58  1  0  0  0  0
M  CHG  1  27   1
M  END
>  <idnumber>
Z4012392038

>  <Chemgauss4>
-13.8979911804199

>  <Hetero-Bemis-Murcko>
c1ccc(cc1)CC(c2ccccn2)NCCN3CC4CCC3CC4

>  <Hetero-Bemis-Murcko>
c1ccc(cc1)CC(c2ccccn2)NCCN3CC4CCC3CC4

>  <MW>
392.503

>  <HBD>
2

>  <HBA>
4

>  <RotBonds>
4

>  <XLogP>
1.76099967956543

>  <sLogP>
2.272

>  <TPSA>
89.9400024414062

>  <FSP3>
0.435

>  <QED>
0.782

$$$$
Z1175898210
  -OEChem-04242015583D

 53 56  0     1  0  0  0  0  0999 V2000
  -13.5569   15.1817   73.2578 C   0  0  0  0  0  0  0  0  0  0  0  0
  -12.2670   15.7034   73.3557 C   0  0  0  0  0  0  0  0  0  0  0  0
  -13.9918   14.6172   72.0587 C   0  0  0  0  0  0  0  0  0  0  0  0
  -11.4121   15.6608   72.2543 C   0  0  0  0  0  0  0  0  0  0  0  0
  -13.1369   14.5746   70.9574 C   0  0  0  0  0  0  0  0  0  0  0  0
  -12.4349    6.8882   71.1755 C   0  0  0  0  0  0  0  0  0  0  0  0
  -11.8686    6.1836   72.2417 C   0  0  0  0  0  0  0  0  0  0  0  0
  -10.5043    8.0960   72.8567 C   0  0  0  0  0  0  0  0  0  0  0  0
  -10.8818   10.1471   71.2899 C   0  0  0  0  0  0  0  0  0  0  0  0
  -11.0611    8.8262   71.7880 C   0  0  0  0  0  0  0  0  0  0  0  0
  -11.8470   15.0964   71.0552 C   0  0  0  0  0  0  0  0  0  0  0  0
  -12.0117    8.2067   70.9737 C   0  0  0  0  0  0  0  0  0  0  0  0
  -10.9181    6.7762   73.0706 C   0  0  0  0  0  0  0  0  0  0  0  0
  -11.7112   10.3010   70.2030 C   0  0  0  0  0  0  0  0  0  0  0  0
  -11.8873   11.4971   69.3396 C   0  0  0  0  0  0  0  0  0  0  0  0
   -9.8074   12.5009   65.6450 C   0  0  0  0  0  0  0  0  0  0  0  0
  -11.9639   13.7143   65.8876 C   0  0  0  0  0  0  0  0  0  0  0  0
  -10.4862   11.6354   64.5971 C   0  0  0  0  0  0  0  0  0  0  0  0
  -12.5312   12.7864   64.8267 C   0  0  0  0  0  0  0  0  0  0  0  0
  -10.9214   15.0501   69.8616 C   0  0  0  0  0  0  0  0  0  0  0  0
  -10.2700   13.8103   67.7225 C   0  0  0  0  0  0  0  0  0  0  0  0
  -11.1938   13.8460   68.9424 C   0  0  1  0  0  0  0  0  0  0  0  0
  -12.3888    9.1254   70.0202 N   0  0  0  0  0  0  0  0  0  0  0  0
  -11.1171   12.5990   69.6722 N   0  0  0  0  0  0  0  0  0  0  0  0
  -10.8594   12.9843   66.6154 N   0  3  0  0  0  0  0  0  0  0  0  0
  -12.6965   11.4568   68.4165 O   0  0  0  0  0  0  0  0  0  0  0  0
  -11.5059   12.3734   63.9220 O   0  0  0  0  0  0  0  0  0  0  0  0
  -10.1785    5.7889   74.5054 Br  0  0  0  0  0  0  0  0  0  0  0  0
  -14.2220   15.2138   74.1159 H   0  0  0  0  0  0  0  0  0  0  0  0
  -11.9278   16.1420   74.2896 H   0  0  0  0  0  0  0  0  0  0  0  0
  -14.9956   14.2099   71.9825 H   0  0  0  0  0  0  0  0  0  0  0  0
  -10.4088   16.0699   72.3397 H   0  0  0  0  0  0  0  0  0  0  0  0
  -13.4844   14.1330   70.0271 H   0  0  0  0  0  0  0  0  0  0  0  0
  -13.1739    6.4255   70.5302 H   0  0  0  0  0  0  0  0  0  0  0  0
  -12.1866    5.1571   72.4115 H   0  0  0  0  0  0  0  0  0  0  0  0
   -9.7626    8.5614   73.5008 H   0  0  0  0  0  0  0  0  0  0  0  0
  -10.2159   10.9017   71.6871 H   0  0  0  0  0  0  0  0  0  0  0  0
   -9.0640   11.9325   66.2120 H   0  0  0  0  0  0  0  0  0  0  0  0
   -9.3478   13.3895   65.1987 H   0  0  0  0  0  0  0  0  0  0  0  0
  -11.5183   14.6111   65.4437 H   0  0  0  0  0  0  0  0  0  0  0  0
  -12.7241   13.9919   66.6240 H   0  0  0  0  0  0  0  0  0  0  0  0
   -9.7535   11.3228   63.8464 H   0  0  0  0  0  0  0  0  0  0  0  0
  -10.9154   10.7267   65.0358 H   0  0  0  0  0  0  0  0  0  0  0  0
  -13.0101   11.9056   65.2707 H   0  0  0  0  0  0  0  0  0  0  0  0
  -13.2919   13.3151   64.2437 H   0  0  0  0  0  0  0  0  0  0  0  0
   -9.8821   15.0441   70.2149 H   0  0  0  0  0  0  0  0  0  0  0  0
  -11.0441   15.9850   69.2990 H   0  0  0  0  0  0  0  0  0  0  0  0
  -10.1140   14.8123   67.3096 H   0  0  0  0  0  0  0  0  0  0  0  0
   -9.2993   13.3664   67.9634 H   0  0  0  0  0  0  0  0  0  0  0  0
  -12.2238   13.9022   68.5688 H   0  0  0  0  0  0  0  0  0  0  0  0
  -13.0678    8.9534   69.2915 H   0  0  0  0  0  0  0  0  0  0  0  0
  -10.5152   12.5798   70.4881 H   0  0  0  0  0  0  0  0  0  0  0  0
  -11.2771   12.1540   67.0578 H   0  0  0  0  0  0  0  0  0  0  0  0
  1  2  2  0  0  0  0
  1  3  1  0  0  0  0
  2  4  1  0  0  0  0
  3  5  2  0  0  0  0
  4 11  2  0  0  0  0
  5 11  1  0  0  0  0
  6  7  1  0  0  0  0
  6 12  2  0  0  0  0
  7 13  2  0  0  0  0
  8 10  2  0  0  0  0
  8 13  1  0  0  0  0
  9 10  1  0  0  0  0
  9 14  2  0  0  0  0
 10 12  1  0  0  0  0
 11 20  1  0  0  0  0
 12 23  1  0  0  0  0
 13 28  1  0  0  0  0
 14 15  1  0  0  0  0
 14 23  1  0  0  0  0
 15 24  1  0  0  0  0
 15 26  2  0  0  0  0
 16 18  1  0  0  0  0
 16 25  1  0  0  0  0
 17 19  1  0  0  0  0
 17 25  1  0  0  0  0
 18 27  1  0  0  0  0
 19 27  1  0  0  0  0
 20 22  1  1  0  0  0
 21 22  1  0  0  0  0
 21 25  1  0  0  0  0
 22 24  1  0  0  0  0
  1 29  1  0  0  0  0
  2 30  1  0  0  0  0
  3 31  1  0  0  0  0
  4 32  1  0  0  0  0
  5 33  1  0  0  0  0
  6 34  1  0  0  0  0
  7 35  1  0  0  0  0
  8 36  1  0  0  0  0
  9 37  1  0  0  0  0
 16 38  1  0  0  0  0
 16 39  1  0  0  0  0
 17 40  1  0  0  0  0
 17 41  1  0  0  0  0
 18 42  1  0  0  0  0
 18 43  1  0  0  0  0
 19 44  1  0  0  0  0
 19 45  1  0  0  0  0
 20 46  1  0  0  0  0
 20 47  1  0  0  0  0
 21 48  1  0  0  0  0
 21 49  1  0  0  0  0
 22 50  1  0  0  0  0
 23 51  1  0  0  0  0
 24 52  1  0  0  0  0
 25 53  1  0  0  0  0
M  CHG  1  25   1
M  END
>  <idnumber>
Z1175898210

>  <Chemgauss4>
-13.8977317810059

>  <Hetero-Bemis-Murcko>
c1ccc(cc1)CC(C[NH+]2CCOCC2)NCc3cc4ccccc4[nH]3

>  <Hetero-Bemis-Murcko>
c1ccc(cc1)CC(C[NH+]2CCOCC2)NCc3cc4ccccc4[nH]3

>  <MW>
442.357

>  <HBD>
2

>  <HBA>
3

>  <RotBonds>
6

>  <XLogP>
3.14199995994568

>  <sLogP>
3.604

>  <TPSA>
58.5599975585938

>  <FSP3>
0.318

>  <QED>
0.614

$$$$
Z2089688774
  -OEChem-04242015583D

 54 57  0     1  0  0  0  0  0999 V2000
  -12.4996   15.9978   73.3497 C   0  0  0  0  0  0  0  0  0  0  0  0
  -13.4526   15.0501   72.9769 C   0  0  0  0  0  0  0  0  0  0  0  0
  -11.3783   16.2122   72.5480 C   0  0  0  0  0  0  0  0  0  0  0  0
   -9.7542    5.2066   69.4243 C   0  0  0  0  0  0  0  0  0  0  0  0
  -13.2845   14.3166   71.8024 C   0  0  0  0  0  0  0  0  0  0  0  0
  -11.2102   15.4787   71.3736 C   0  0  0  0  0  0  0  0  0  0  0  0
  -10.5744   12.9466   66.7501 C   0  0  0  0  0  0  0  0  0  0  0  0
  -12.4630   14.4232   66.4502 C   0  0  0  0  0  0  0  0  0  0  0  0
  -10.7734   12.4319   65.4691 C   0  0  0  0  0  0  0  0  0  0  0  0
  -12.6620   13.9085   65.1691 C   0  0  0  0  0  0  0  0  0  0  0  0
   -9.4707    6.1216   70.4681 C   0  0  0  0  0  0  0  0  0  0  0  0
  -10.9063    5.6354   68.8030 C   0  0  0  0  0  0  0  0  0  0  0  0
  -11.4193   13.9423   67.2407 C   0  0  0  0  0  0  0  0  0  0  0  0
  -12.1633   14.5309   71.0007 C   0  0  0  0  0  0  0  0  0  0  0  0
  -11.8171   12.9129   64.6786 C   0  0  0  0  0  0  0  0  0  0  0  0
  -10.4584    7.0816   70.4531 C   0  0  0  0  0  0  0  0  0  0  0  0
  -10.7517   10.1857   69.7053 C   0  0  0  0  0  0  0  0  0  0  0  0
  -11.5499   11.3443   69.2379 C   0  0  0  0  0  0  0  0  0  0  0  0
  -12.9517    8.4302   72.1184 C   0  0  0  0  0  0  0  0  0  0  0  0
  -11.5541    7.9932   72.5507 C   0  0  0  0  0  0  0  0  0  0  0  0
  -12.6900    9.6303   71.2229 C   0  0  0  0  0  0  0  0  0  0  0  0
  -10.6723    8.2987   71.3338 C   0  0  2  0  0  0  0  0  0  0  0  0
  -11.2037   14.5011   68.6287 C   0  0  0  0  0  0  0  0  0  0  0  0
  -11.9794   13.7322   69.7216 C   0  0  1  0  0  0  0  0  0  0  0  0
  -11.3257    6.7758   69.4370 N   0  0  0  0  0  0  0  0  0  0  0  0
  -11.3623    9.4024   70.6620 N   0  0  0  0  0  0  0  0  0  0  0  0
  -11.3179   12.4752   69.9887 N   0  0  0  0  0  0  0  0  0  0  0  0
   -9.6470   10.0432   69.2015 O   0  0  0  0  0  0  0  0  0  0  0  0
  -12.3047   11.2276   68.2846 O   0  0  0  0  0  0  0  0  0  0  0  0
  -12.0067   12.4206   63.4473 F   0  0  0  0  0  0  0  0  0  0  0  0
  -12.6313   16.5698   74.2635 H   0  0  0  0  0  0  0  0  0  0  0  0
  -14.3263   14.8838   73.6004 H   0  0  0  0  0  0  0  0  0  0  0  0
  -10.6367   16.9507   72.8375 H   0  0  0  0  0  0  0  0  0  0  0  0
   -9.1822    4.3302   69.1540 H   0  0  0  0  0  0  0  0  0  0  0  0
  -14.0322   13.5801   71.5199 H   0  0  0  0  0  0  0  0  0  0  0  0
  -10.3335   15.6523   70.7553 H   0  0  0  0  0  0  0  0  0  0  0  0
   -9.7589   12.5651   67.3589 H   0  0  0  0  0  0  0  0  0  0  0  0
  -13.1261   15.1990   66.8239 H   0  0  0  0  0  0  0  0  0  0  0  0
  -10.1154   11.6574   65.0868 H   0  0  0  0  0  0  0  0  0  0  0  0
  -13.4747   14.2824   64.5536 H   0  0  0  0  0  0  0  0  0  0  0  0
   -8.6363    6.0816   71.1548 H   0  0  0  0  0  0  0  0  0  0  0  0
  -11.4631    5.2311   67.9695 H   0  0  0  0  0  0  0  0  0  0  0  0
  -13.4347    7.6303   71.5450 H   0  0  0  0  0  0  0  0  0  0  0  0
  -13.5911    8.6759   72.9710 H   0  0  0  0  0  0  0  0  0  0  0  0
  -11.2324    8.6103   73.3990 H   0  0  0  0  0  0  0  0  0  0  0  0
  -11.5329    6.9443   72.8636 H   0  0  0  0  0  0  0  0  0  0  0  0
  -13.4347    9.7378   70.4288 H   0  0  0  0  0  0  0  0  0  0  0  0
  -12.6535   10.5586   71.8037 H   0  0  0  0  0  0  0  0  0  0  0  0
   -9.6572    8.6536   71.6711 H   0  0  0  0  0  0  0  0  0  0  0  0
  -11.5223   15.5529   68.6161 H   0  0  0  0  0  0  0  0  0  0  0  0
  -10.1292   14.5262   68.8533 H   0  0  0  0  0  0  0  0  0  0  0  0
  -12.9720   13.4779   69.3283 H   0  0  0  0  0  0  0  0  0  0  0  0
  -12.1497    7.3073   69.1912 H   0  0  0  0  0  0  0  0  0  0  0  0
  -10.6574   12.4241   70.7589 H   0  0  0  0  0  0  0  0  0  0  0  0
  1  2  2  0  0  0  0
  1  3  1  0  0  0  0
  2  5  1  0  0  0  0
  3  6  2  0  0  0  0
  4 11  1  0  0  0  0
  4 12  2  0  0  0  0
  5 14  2  0  0  0  0
  6 14  1  0  0  0  0
  7  9  1  0  0  0  0
  7 13  2  0  0  0  0
  8 10  2  0  0  0  0
  8 13  1  0  0  0  0
  9 15  2  0  0  0  0
 10 15  1  0  0  0  0
 11 16  2  0  0  0  0
 12 25  1  0  0  0  0
 13 23  1  0  0  0  0
 14 24  1  0  0  0  0
 15 30  1  0  0  0  0
 16 22  1  1  0  0  0
 16 25  1  0  0  0  0
 17 18  1  0  0  0  0
 17 26  1  0  0  0  0
 17 28  2  0  0  0  0
 18 27  1  0  0  0  0
 18 29  2  0  0  0  0
 19 20  1  0  0  0  0
 19 21  1  0  0  0  0
 20 22  1  0  0  0  0
 21 26  1  0  0  0  0
 22 26  1  0  0  0  0
 23 24  1  6  0  0  0
 24 27  1  0  0  0  0
  1 31  1  0  0  0  0
  2 32  1  0  0  0  0
  3 33  1  0  0  0  0
  4 34  1  0  0  0  0
  5 35  1  0  0  0  0
  6 36  1  0  0  0  0
  7 37  1  0  0  0  0
  8 38  1  0  0  0  0
  9 39  1  0  0  0  0
 10 40  1  0  0  0  0
 11 41  1  0  0  0  0
 12 42  1  0  0  0  0
 19 43  1  0  0  0  0
 19 44  1  0  0  0  0
 20 45  1  0  0  0  0
 20 46  1  0  0  0  0
 21 47  1  0  0  0  0
 21 48  1  0  0  0  0
 22 49  1  0  0  0  0
 23 50  1  0  0  0  0
 23 51  1  0  0  0  0
 24 52  1  0  0  0  0
 25 53  1  0  0  0  0
 27 54  1  0  0  0  0
M  END
>  <idnumber>
Z2089688774

>  <Chemgauss4>
-13.8916521072388

>  <Hetero-Bemis-Murcko>
c1ccc(cc1)CC(c2ccccc2)NCCN3CCCC3c4ccc[nH]4

>  <Hetero-Bemis-Murcko>
c1ccc(cc1)CC(c2ccccc2)NCCN3CCCC3c4ccc[nH]4

>  <MW>
405.473

>  <HBD>
2

>  <HBA>
2

>  <RotBonds>
5

>  <XLogP>
3.60599994659424

>  <sLogP>
3.918

>  <TPSA>
65.1999969482422

>  <FSP3>
0.25

>  <QED>
0.632

$$$$
Z739277690
  -OEChem-04242015583D

 57 61  0     1  0  0  0  0  0999 V2000
  -10.9959   12.4509   63.4803 C   0  0  0  0  0  0  0  0  0  0  0  0
  -12.2516   13.0542   63.3796 C   0  0  0  0  0  0  0  0  0  0  0  0
  -12.9866    9.6029   71.3599 C   0  0  0  0  0  0  0  0  0  0  0  0
  -13.4228   13.9216   72.1097 C   0  0  0  0  0  0  0  0  0  0  0  0
  -12.3710   16.0595   71.7095 C   0  0  0  0  0  0  0  0  0  0  0  0
  -10.3360   12.3599   64.7123 C   0  0  0  0  0  0  0  0  0  0  0  0
  -12.8929   13.5874   64.5026 C   0  0  0  0  0  0  0  0  0  0  0  0
  -12.6803    8.5256   72.1896 C   0  0  0  0  0  0  0  0  0  0  0  0
  -13.4596   14.1956   73.4768 C   0  0  0  0  0  0  0  0  0  0  0  0
  -12.4079   16.3336   73.0767 C   0  0  0  0  0  0  0  0  0  0  0  0
  -10.6542   10.1428   71.2700 C   0  0  0  0  0  0  0  0  0  0  0  0
  -11.9689   10.4210   70.9039 C   0  0  0  0  0  0  0  0  0  0  0  0
  -10.3161    9.0427   72.0966 C   0  0  0  0  0  0  0  0  0  0  0  0
  -12.8784   14.8536   71.2260 C   0  0  0  0  0  0  0  0  0  0  0  0
  -10.9655   12.8905   65.8509 C   0  0  0  0  0  0  0  0  0  0  0  0
  -12.2170   13.4856   65.7189 C   0  0  0  0  0  0  0  0  0  0  0  0
  -11.3547    8.2358   72.5880 C   0  0  0  0  0  0  0  0  0  0  0  0
  -12.9522   15.4016   73.9603 C   0  0  0  0  0  0  0  0  0  0  0  0
  -11.5063   13.5348   67.8135 C   0  0  0  0  0  0  0  0  0  0  0  0
  -10.2319    6.5791   74.1808 C   0  0  0  0  0  0  0  0  0  0  0  0
  -12.2676   11.5551   70.0445 C   0  0  0  0  0  0  0  0  0  0  0  0
   -8.8398    8.8881   72.3497 C   0  0  0  0  0  0  0  0  0  0  0  0
   -8.8885    7.2449   74.2114 C   0  0  0  0  0  0  0  0  0  0  0  0
   -8.3648    7.5293   72.8235 C   0  0  0  0  0  0  0  0  0  0  0  0
  -12.8389   14.5570   69.7441 C   0  0  0  0  0  0  0  0  0  0  0  0
  -11.5449   13.8381   69.3016 C   0  0  1  0  0  0  0  0  0  0  0  0
  -10.5403   12.9302   67.1590 N   0  0  0  0  0  0  0  0  0  0  0  0
  -12.5385   13.8885   66.9897 N   0  0  0  0  0  0  0  0  0  0  0  0
  -11.2572    7.1212   73.4545 N   0  0  0  0  0  0  0  0  0  0  0  0
  -11.3734   12.6317   70.0787 N   0  0  0  0  0  0  0  0  0  0  0  0
  -10.4185    5.5678   74.8680 O   0  0  0  0  0  0  0  0  0  0  0  0
  -13.2885   11.5575   69.3337 O   0  0  0  0  0  0  0  0  0  0  0  0
  -12.9894   15.6693   75.2943 O   0  0  0  0  0  0  0  0  0  0  0  0
  -10.5232   12.0451   62.5894 H   0  0  0  0  0  0  0  0  0  0  0  0
  -12.7401   13.1121   62.4099 H   0  0  0  0  0  0  0  0  0  0  0  0
  -14.0212    9.7922   71.0873 H   0  0  0  0  0  0  0  0  0  0  0  0
  -13.8202   12.9795   71.7418 H   0  0  0  0  0  0  0  0  0  0  0  0
  -11.9449   16.7916   71.0283 H   0  0  0  0  0  0  0  0  0  0  0  0
   -9.3609   11.8882   64.7797 H   0  0  0  0  0  0  0  0  0  0  0  0
  -13.8679   14.0551   64.4265 H   0  0  0  0  0  0  0  0  0  0  0  0
  -13.5065    7.9083   72.5413 H   0  0  0  0  0  0  0  0  0  0  0  0
  -13.8852   13.4656   74.1603 H   0  0  0  0  0  0  0  0  0  0  0  0
  -12.0114   17.2748   73.4470 H   0  0  0  0  0  0  0  0  0  0  0  0
   -9.8604   10.7911   70.8982 H   0  0  0  0  0  0  0  0  0  0  0  0
   -8.3048    9.0971   71.4130 H   0  0  0  0  0  0  0  0  0  0  0  0
   -8.5306    9.6612   73.0653 H   0  0  0  0  0  0  0  0  0  0  0  0
   -8.9472    8.1434   74.8354 H   0  0  0  0  0  0  0  0  0  0  0  0
   -8.1972    6.5531   74.7090 H   0  0  0  0  0  0  0  0  0  0  0  0
   -8.6514    6.7435   72.1140 H   0  0  0  0  0  0  0  0  0  0  0  0
   -7.2684    7.5462   72.8584 H   0  0  0  0  0  0  0  0  0  0  0  0
  -12.9342   15.5137   69.2116 H   0  0  0  0  0  0  0  0  0  0  0  0
  -13.7273   13.9774   69.4604 H   0  0  0  0  0  0  0  0  0  0  0  0
  -10.6900   14.4823   69.5444 H   0  0  0  0  0  0  0  0  0  0  0  0
  -13.3888   14.3619   67.2653 H   0  0  0  0  0  0  0  0  0  0  0  0
  -12.1355    6.6231   73.5859 H   0  0  0  0  0  0  0  0  0  0  0  0
  -10.5900   12.6053   70.7232 H   0  0  0  0  0  0  0  0  0  0  0  0
  -12.6019   16.5409   75.4734 H   0  0  0  0  0  0  0  0  0  0  0  0
  1  2  2  0  0  0  0
  1  6  1  0  0  0  0
  2  7  1  0  0  0  0
  3  8  1  0  0  0  0
  3 12  2  0  0  0  0
  4  9  1  0  0  0  0
  4 14  2  0  0  0  0
  5 10  2  0  0  0  0
  5 14  1  0  0  0  0
  6 15  2  0  0  0  0
  7 16  2  0  0  0  0
  8 17  2  0  0  0  0
  9 18  2  0  0  0  0
 10 18  1  0  0  0  0
 11 12  1  0  0  0  0
 11 13  2  0  0  0  0
 12 21  1  0  0  0  0
 13 17  1  0  0  0  0
 13 22  1  0  0  0  0
 14 25  1  0  0  0  0
 15 16  1  0  0  0  0
 15 27  1  0  0  0  0
 16 28  1  0  0  0  0
 17 29  1  0  0  0  0
 18 33  1  0  0  0  0
 19 26  1  0  0  0  0
 19 27  2  0  0  0  0
 19 28  1  0  0  0  0
 20 23  1  0  0  0  0
 20 29  1  0  0  0  0
 20 31  2  0  0  0  0
 21 30  1  0  0  0  0
 21 32  2  0  0  0  0
 22 24  1  0  0  0  0
 23 24  1  0  0  0  0
 25 26  1  6  0  0  0
 26 30  1  0  0  0  0
  1 34  1  0  0  0  0
  2 35  1  0  0  0  0
  3 36  1  0  0  0  0
  4 37  1  0  0  0  0
  5 38  1  0  0  0  0
  6 39  1  0  0  0  0
  7 40  1  0  0  0  0
  8 41  1  0  0  0  0
  9 42  1  0  0  0  0
 10 43  1  0  0  0  0
 11 44  1  0  0  0  0
 22 45  1  0  0  0  0
 22 46  1  0  0  0  0
 23 47  1  0  0  0  0
 23 48  1  0  0  0  0
 24 49  1  0  0  0  0
 24 50  1  0  0  0  0
 25 51  1  0  0  0  0
 25 52  1  0  0  0  0
 26 53  1  0  0  0  0
 28 54  1  0  0  0  0
 29 55  1  0  0  0  0
 30 56  1  0  0  0  0
 33 57  1  0  0  0  0
M  END
>  <idnumber>
Z739277690

>  <Chemgauss4>
-13.8837833404541

>  <Hetero-Bemis-Murcko>
c1ccc(cc1)CC(c2[nH]c3ccccc3n2)NCc4ccc5c(c4)CCCCN5

>  <Hetero-Bemis-Murcko>
c1ccc(cc1)CC(c2[nH]c3ccccc3n2)NCc4ccc5c(c4)CCCCN5

>  <MW>
440.503

>  <HBD>
4

>  <HBA>
4

>  <RotBonds>
5

>  <XLogP>
3.08400011062622

>  <sLogP>
4.257

>  <TPSA>
107.109992980957

>  <FSP3>
0.192

>  <QED>
0.372

$$$$
Z2366882723
  -OEChem-04242015583D

 48 50  0     1  0  0  0  0  0999 V2000
  -12.9079   14.9910   73.5358 C   0  0  0  0  0  0  0  0  0  0  0  0
  -12.3361   16.2561   73.6118 C   0  0  0  0  0  0  0  0  0  0  0  0
  -10.1327   13.2786   67.3260 C   0  0  0  0  0  0  0  0  0  0  0  0
  -12.2118   14.2649   66.5899 C   0  0  0  0  0  0  0  0  0  0  0  0
  -10.0370   12.5814   66.1218 C   0  0  0  0  0  0  0  0  0  0  0  0
  -12.1161   13.5676   65.3855 C   0  0  0  0  0  0  0  0  0  0  0  0
  -12.8340   14.2710   72.3486 C   0  0  0  0  0  0  0  0  0  0  0  0
  -11.7068   16.7524   72.4815 C   0  0  0  0  0  0  0  0  0  0  0  0
  -11.2201   14.1203   67.5601 C   0  0  0  0  0  0  0  0  0  0  0  0
  -11.0287   12.7259   65.1515 C   0  0  0  0  0  0  0  0  0  0  0  0
  -12.1826   14.8562   71.2748 C   0  0  0  0  0  0  0  0  0  0  0  0
  -10.9952   10.5109   69.7693 C   0  0  0  0  0  0  0  0  0  0  0  0
  -11.7669   11.7158   69.3768 C   0  0  0  0  0  0  0  0  0  0  0  0
  -11.9486    8.1697   72.4733 C   0  0  0  0  0  0  0  0  0  0  0  0
  -11.0408    8.4860   71.2903 C   0  0  0  0  0  0  0  0  0  0  0  0
  -12.8766   10.0465   71.3184 C   0  0  0  0  0  0  0  0  0  0  0  0
  -13.2781    8.7672   72.0307 C   0  0  2  0  0  0  0  0  0  0  0  0
  -11.3234   14.8775   68.8645 C   0  0  0  0  0  0  0  0  0  0  0  0
  -12.0827   14.0986   69.9618 C   0  0  1  0  0  0  0  0  0  0  0  0
  -11.6150   16.0827   71.3108 N   0  0  0  0  0  0  0  0  0  0  0  0
  -11.5873    9.7180   70.7257 N   0  0  0  0  0  0  0  0  0  0  0  0
  -11.4602   12.8088   70.1563 N   0  0  0  0  0  0  0  0  0  0  0  0
  -14.1526    9.0428   73.1824 N   0  3  0  0  0  0  0  0  0  0  0  0
   -9.9181   10.3451   69.2145 O   0  0  0  0  0  0  0  0  0  0  0  0
  -12.5641   11.6622   68.4531 O   0  0  0  0  0  0  0  0  0  0  0  0
  -10.9103   11.8658   63.6659 Cl  0  0  0  0  0  0  0  0  0  0  0  0
  -13.4101   14.5671   74.4001 H   0  0  0  0  0  0  0  0  0  0  0  0
  -12.3816   16.8354   74.5269 H   0  0  0  0  0  0  0  0  0  0  0  0
   -9.3561   13.1605   68.0771 H   0  0  0  0  0  0  0  0  0  0  0  0
  -13.0621   14.9189   66.7644 H   0  0  0  0  0  0  0  0  0  0  0  0
   -9.1838   11.9294   65.9533 H   0  0  0  0  0  0  0  0  0  0  0  0
  -12.8963   13.6900   64.6388 H   0  0  0  0  0  0  0  0  0  0  0  0
  -13.2760   13.2830   72.2762 H   0  0  0  0  0  0  0  0  0  0  0  0
  -11.2450   17.7342   72.4891 H   0  0  0  0  0  0  0  0  0  0  0  0
  -12.0156    7.0958   72.6705 H   0  0  0  0  0  0  0  0  0  0  0  0
  -11.5672    8.6675   73.3735 H   0  0  0  0  0  0  0  0  0  0  0  0
   -9.9949    8.6193   71.5815 H   0  0  0  0  0  0  0  0  0  0  0  0
  -11.1019    7.7093   70.5202 H   0  0  0  0  0  0  0  0  0  0  0  0
  -13.5886   10.3566   70.5474 H   0  0  0  0  0  0  0  0  0  0  0  0
  -12.7130   10.8843   72.0062 H   0  0  0  0  0  0  0  0  0  0  0  0
  -13.8169    8.0873   71.3608 H   0  0  0  0  0  0  0  0  0  0  0  0
  -11.8380   15.8263   68.6576 H   0  0  0  0  0  0  0  0  0  0  0  0
  -10.3192   15.1606   69.2069 H   0  0  0  0  0  0  0  0  0  0  0  0
  -13.0998   13.8961   69.6024 H   0  0  0  0  0  0  0  0  0  0  0  0
  -10.7710   12.7047   70.8955 H   0  0  0  0  0  0  0  0  0  0  0  0
  -15.0519    8.5480   73.1016 H   0  0  0  0  0  0  0  0  0  0  0  0
  -14.3620   10.0478   73.2657 H   0  0  0  0  0  0  0  0  0  0  0  0
  -13.7176    8.7459   74.0673 H   0  0  0  0  0  0  0  0  0  0  0  0
  1  2  2  0  0  0  0
  1  7  1  0  0  0  0
  2  8  1  0  0  0  0
  3  5  1  0  0  0  0
  3  9  2  0  0  0  0
  4  6  2  0  0  0  0
  4  9  1  0  0  0  0
  5 10  2  0  0  0  0
  6 10  1  0  0  0  0
  7 11  2  0  0  0  0
  8 20  2  0  0  0  0
  9 18  1  0  0  0  0
 10 26  1  0  0  0  0
 11 19  1  0  0  0  0
 11 20  1  0  0  0  0
 12 13  1  0  0  0  0
 12 21  1  0  0  0  0
 12 24  2  0  0  0  0
 13 22  1  0  0  0  0
 13 25  2  0  0  0  0
 14 15  1  0  0  0  0
 14 17  1  0  0  0  0
 15 21  1  0  0  0  0
 16 17  1  0  0  0  0
 16 21  1  0  0  0  0
 17 23  1  0  0  0  0
 18 19  1  6  0  0  0
 19 22  1  0  0  0  0
  1 27  1  0  0  0  0
  2 28  1  0  0  0  0
  3 29  1  0  0  0  0
  4 30  1  0  0  0  0
  5 31  1  0  0  0  0
  6 32  1  0  0  0  0
  7 33  1  0  0  0  0
  8 34  1  0  0  0  0
 14 35  1  0  0  0  0
 14 36  1  0  0  0  0
 15 37  1  0  0  0  0
 15 38  1  0  0  0  0
 16 39  1  0  0  0  0
 16 40  1  0  0  0  0
 17 41  1  6  0  0  0
 18 42  1  0  0  0  0
 18 43  1  0  0  0  0
 19 44  1  0  0  0  0
 22 45  1  0  0  0  0
 23 46  1  0  0  0  0
 23 47  1  0  0  0  0
 23 48  1  0  0  0  0
M  CHG  1  23   1
M  END
>  <idnumber>
Z2366882723

>  <Chemgauss4>
-13.8835039138794

>  <Hetero-Bemis-Murcko>
c1ccc(cc1)CC(c2ccccn2)NCCN3CCCC3

>  <Hetero-Bemis-Murcko>
c1ccc(cc1)CC(c2ccccn2)NCCN3CCCC3

>  <MW>
372.856

>  <HBD>
2

>  <HBA>
4

>  <RotBonds>
4

>  <XLogP>
1.04099988937378

>  <sLogP>
1.695

>  <TPSA>
89.9399948120117

>  <FSP3>
0.316

>  <QED>
0.799

$$$$
Z2366882757
  -OEChem-04242015583D

 48 50  0     1  0  0  0  0  0999 V2000
  -12.9079   14.9910   73.5358 C   0  0  0  0  0  0  0  0  0  0  0  0
  -12.3361   16.2561   73.6118 C   0  0  0  0  0  0  0  0  0  0  0  0
  -10.1327   13.2786   67.3260 C   0  0  0  0  0  0  0  0  0  0  0  0
  -12.2118   14.2649   66.5899 C   0  0  0  0  0  0  0  0  0  0  0  0
  -10.0370   12.5814   66.1218 C   0  0  0  0  0  0  0  0  0  0  0  0
  -12.1161   13.5676   65.3855 C   0  0  0  0  0  0  0  0  0  0  0  0
  -12.8340   14.2710   72.3486 C   0  0  0  0  0  0  0  0  0  0  0  0
  -11.7068   16.7524   72.4815 C   0  0  0  0  0  0  0  0  0  0  0  0
  -11.2201   14.1203   67.5601 C   0  0  0  0  0  0  0  0  0  0  0  0
  -11.0287   12.7259   65.1515 C   0  0  0  0  0  0  0  0  0  0  0  0
  -12.1826   14.8562   71.2748 C   0  0  0  0  0  0  0  0  0  0  0  0
  -10.9952   10.5109   69.7693 C   0  0  0  0  0  0  0  0  0  0  0  0
  -11.7669   11.7158   69.3768 C   0  0  0  0  0  0  0  0  0  0  0  0
  -11.9486    8.1697   72.4733 C   0  0  0  0  0  0  0  0  0  0  0  0
  -11.0408    8.4860   71.2903 C   0  0  0  0  0  0  0  0  0  0  0  0
  -12.8766   10.0465   71.3184 C   0  0  0  0  0  0  0  0  0  0  0  0
  -13.2781    8.7672   72.0307 C   0  0  2  0  0  0  0  0  0  0  0  0
  -11.3234   14.8775   68.8645 C   0  0  0  0  0  0  0  0  0  0  0  0
  -12.0827   14.0986   69.9618 C   0  0  1  0  0  0  0  0  0  0  0  0
  -11.6150   16.0827   71.3108 N   0  0  0  0  0  0  0  0  0  0  0  0
  -11.5873    9.7180   70.7257 N   0  0  0  0  0  0  0  0  0  0  0  0
  -11.4602   12.8088   70.1563 N   0  0  0  0  0  0  0  0  0  0  0  0
  -14.1526    9.0428   73.1824 N   0  3  0  0  0  0  0  0  0  0  0  0
   -9.9181   10.3451   69.2145 O   0  0  0  0  0  0  0  0  0  0  0  0
  -12.5641   11.6622   68.4531 O   0  0  0  0  0  0  0  0  0  0  0  0
  -10.9103   11.8658   63.6659 Cl  0  0  0  0  0  0  0  0  0  0  0  0
  -13.4101   14.5671   74.4001 H   0  0  0  0  0  0  0  0  0  0  0  0
  -12.3816   16.8354   74.5269 H   0  0  0  0  0  0  0  0  0  0  0  0
   -9.3561   13.1605   68.0771 H   0  0  0  0  0  0  0  0  0  0  0  0
  -13.0621   14.9189   66.7644 H   0  0  0  0  0  0  0  0  0  0  0  0
   -9.1838   11.9294   65.9533 H   0  0  0  0  0  0  0  0  0  0  0  0
  -12.8963   13.6900   64.6388 H   0  0  0  0  0  0  0  0  0  0  0  0
  -13.2760   13.2830   72.2762 H   0  0  0  0  0  0  0  0  0  0  0  0
  -11.2450   17.7342   72.4891 H   0  0  0  0  0  0  0  0  0  0  0  0
  -12.0156    7.0958   72.6705 H   0  0  0  0  0  0  0  0  0  0  0  0
  -11.5672    8.6675   73.3735 H   0  0  0  0  0  0  0  0  0  0  0  0
   -9.9949    8.6193   71.5815 H   0  0  0  0  0  0  0  0  0  0  0  0
  -11.1019    7.7093   70.5202 H   0  0  0  0  0  0  0  0  0  0  0  0
  -13.5886   10.3566   70.5474 H   0  0  0  0  0  0  0  0  0  0  0  0
  -12.7130   10.8843   72.0062 H   0  0  0  0  0  0  0  0  0  0  0  0
  -13.8169    8.0873   71.3608 H   0  0  0  0  0  0  0  0  0  0  0  0
  -11.8380   15.8263   68.6576 H   0  0  0  0  0  0  0  0  0  0  0  0
  -10.3192   15.1606   69.2069 H   0  0  0  0  0  0  0  0  0  0  0  0
  -13.0998   13.8961   69.6024 H   0  0  0  0  0  0  0  0  0  0  0  0
  -10.7710   12.7047   70.8955 H   0  0  0  0  0  0  0  0  0  0  0  0
  -15.0519    8.5480   73.1016 H   0  0  0  0  0  0  0  0  0  0  0  0
  -14.3620   10.0478   73.2657 H   0  0  0  0  0  0  0  0  0  0  0  0
  -13.7176    8.7459   74.0673 H   0  0  0  0  0  0  0  0  0  0  0  0
  1  2  2  0  0  0  0
  1  7  1  0  0  0  0
  2  8  1  0  0  0  0
  3  5  1  0  0  0  0
  3  9  2  0  0  0  0
  4  6  2  0  0  0  0
  4  9  1  0  0  0  0
  5 10  2  0  0  0  0
  6 10  1  0  0  0  0
  7 11  2  0  0  0  0
  8 20  2  0  0  0  0
  9 18  1  0  0  0  0
 10 26  1  0  0  0  0
 11 19  1  0  0  0  0
 11 20  1  0  0  0  0
 12 13  1  0  0  0  0
 12 21  1  0  0  0  0
 12 24  2  0  0  0  0
 13 22  1  0  0  0  0
 13 25  2  0  0  0  0
 14 15  1  0  0  0  0
 14 17  1  0  0  0  0
 15 21  1  0  0  0  0
 16 17  1  0  0  0  0
 16 21  1  0  0  0  0
 17 23  1  1  0  0  0
 18 19  1  6  0  0  0
 19 22  1  0  0  0  0
  1 27  1  0  0  0  0
  2 28  1  0  0  0  0
  3 29  1  0  0  0  0
  4 30  1  0  0  0  0
  5 31  1  0  0  0  0
  6 32  1  0  0  0  0
  7 33  1  0  0  0  0
  8 34  1  0  0  0  0
 14 35  1  0  0  0  0
 14 36  1  0  0  0  0
 15 37  1  0  0  0  0
 15 38  1  0  0  0  0
 16 39  1  0  0  0  0
 16 40  1  0  0  0  0
 17 41  1  0  0  0  0
 18 42  1  0  0  0  0
 18 43  1  0  0  0  0
 19 44  1  0  0  0  0
 22 45  1  0  0  0  0
 23 46  1  0  0  0  0
 23 47  1  0  0  0  0
 23 48  1  0  0  0  0
M  CHG  1  23   1
M  END
>  <idnumber>
Z2366882757

>  <Chemgauss4>
-13.8835039138794

>  <Hetero-Bemis-Murcko>
c1ccc(cc1)CC(c2ccccn2)NCCN3CCCC3

>  <Hetero-Bemis-Murcko>
c1ccc(cc1)CC(c2ccccn2)NCCN3CCCC3

>  <MW>
372.856

>  <HBD>
2

>  <HBA>
4

>  <RotBonds>
4

>  <XLogP>
1.04099988937378

>  <sLogP>
1.695

>  <TPSA>
89.9399948120117

>  <FSP3>
0.316

>  <QED>
0.799

$$$$
Z1082435940
  -OEChem-04242015583D

 51 54  0     0  0  0  0  0  0999 V2000
  -13.3706   10.5961   70.6472 C   0  0  0  0  0  0  0  0  0  0  0  0
  -10.9662   16.7989   67.7027 C   0  0  0  0  0  0  0  0  0  0  0  0
  -13.6106    9.5830   71.5814 C   0  0  0  0  0  0  0  0  0  0  0  0
  -11.5303   16.8175   68.9782 C   0  0  0  0  0  0  0  0  0  0  0  0
  -10.9866   10.1031   70.6157 C   0  0  0  0  0  0  0  0  0  0  0  0
  -10.8313   14.3885   67.7976 C   0  0  0  0  0  0  0  0  0  0  0  0
  -12.0827   10.8532   70.1715 C   0  0  0  0  0  0  0  0  0  0  0  0
  -10.6167   15.5843   67.1123 C   0  0  0  0  0  0  0  0  0  0  0  0
  -11.2093    9.0814   71.5543 C   0  0  0  0  0  0  0  0  0  0  0  0
  -12.5041    8.8489   72.0096 C   0  0  0  0  0  0  0  0  0  0  0  0
  -11.7449   15.6217   69.6635 C   0  0  0  0  0  0  0  0  0  0  0  0
  -11.3954   14.4072   69.0732 C   0  0  0  0  0  0  0  0  0  0  0  0
  -11.0505    7.4646   72.9400 C   0  0  0  0  0  0  0  0  0  0  0  0
  -11.8719   11.9292   69.1880 C   0  0  0  0  0  0  0  0  0  0  0  0
  -10.0293   15.5656   65.7820 C   0  0  0  0  0  0  0  0  0  0  0  0
  -13.5726   15.8618   73.5321 C   0  0  0  0  0  0  0  0  0  0  0  0
  -12.0563   15.8731   73.3830 C   0  0  0  0  0  0  0  0  0  0  0  0
  -14.2057   15.0607   72.4009 C   0  0  0  0  0  0  0  0  0  0  0  0
  -11.6288   16.3973   72.0129 C   0  0  0  0  0  0  0  0  0  0  0  0
  -13.7791   15.5922   71.0343 C   0  0  0  0  0  0  0  0  0  0  0  0
  -10.5732    6.3692   73.8043 C   0  0  0  0  0  0  0  0  0  0  0  0
  -10.3201    8.2119   72.1431 N   0  0  0  0  0  0  0  0  0  0  0  0
  -12.3727    7.8097   72.8946 N   0  0  0  0  0  0  0  0  0  0  0  0
  -12.3138   15.6637   70.9424 N   0  0  0  0  0  0  0  0  0  0  0  0
   -9.6984   14.3281   65.2376 N   0  0  0  0  0  0  0  0  0  0  0  0
  -11.6022   13.1963   69.7398 N   0  0  0  0  0  0  0  0  0  0  0  0
  -11.9657   11.7112   67.9819 O   0  0  0  0  0  0  0  0  0  0  0  0
   -9.8121   16.6169   65.1544 O   0  0  0  0  0  0  0  0  0  0  0  0
   -9.2828    6.5708   74.2009 F   0  0  0  0  0  0  0  0  0  0  0  0
  -10.5765    5.1744   73.1443 F   0  0  0  0  0  0  0  0  0  0  0  0
  -14.2111   11.1887   70.2917 H   0  0  0  0  0  0  0  0  0  0  0  0
  -10.8033   17.7364   67.1773 H   0  0  0  0  0  0  0  0  0  0  0  0
  -14.6093    9.3809   71.9518 H   0  0  0  0  0  0  0  0  0  0  0  0
  -11.7984   17.7702   69.4281 H   0  0  0  0  0  0  0  0  0  0  0  0
   -9.9844   10.3021   70.2468 H   0  0  0  0  0  0  0  0  0  0  0  0
  -10.5584   13.4420   67.3352 H   0  0  0  0  0  0  0  0  0  0  0  0
  -13.8475   15.4221   74.4984 H   0  0  0  0  0  0  0  0  0  0  0  0
  -13.9560   16.8880   73.5222 H   0  0  0  0  0  0  0  0  0  0  0  0
  -11.6131   16.4984   74.1683 H   0  0  0  0  0  0  0  0  0  0  0  0
  -11.6650   14.8595   73.5259 H   0  0  0  0  0  0  0  0  0  0  0  0
  -13.9180   14.0071   72.4905 H   0  0  0  0  0  0  0  0  0  0  0  0
  -15.2988   15.1008   72.4856 H   0  0  0  0  0  0  0  0  0  0  0  0
  -11.8665   17.4670   71.9549 H   0  0  0  0  0  0  0  0  0  0  0  0
  -10.5420   16.2919   71.8979 H   0  0  0  0  0  0  0  0  0  0  0  0
  -14.1699   14.9405   70.2422 H   0  0  0  0  0  0  0  0  0  0  0  0
  -14.2177   16.5877   70.8911 H   0  0  0  0  0  0  0  0  0  0  0  0
  -11.1745    6.2379   74.7138 H   0  0  0  0  0  0  0  0  0  0  0  0
  -13.1218    7.3769   73.4187 H   0  0  0  0  0  0  0  0  0  0  0  0
   -9.8736   13.4866   65.7761 H   0  0  0  0  0  0  0  0  0  0  0  0
   -9.2856   14.2492   64.3138 H   0  0  0  0  0  0  0  0  0  0  0  0
  -11.5510   13.2358   70.7632 H   0  0  0  0  0  0  0  0  0  0  0  0
  1  3  1  0  0  0  0
  1  7  2  0  0  0  0
  2  4  1  0  0  0  0
  2  8  2  0  0  0  0
  3 10  2  0  0  0  0
  4 11  2  0  0  0  0
  5  7  1  0  0  0  0
  5  9  2  0  0  0  0
  6  8  1  0  0  0  0
  6 12  2  0  0  0  0
  7 14  1  0  0  0  0
  8 15  1  0  0  0  0
  9 10  1  0  0  0  0
  9 22  1  0  0  0  0
 10 23  1  0  0  0  0
 11 12  1  0  0  0  0
 11 24  1  0  0  0  0
 12 26  1  0  0  0  0
 13 21  1  0  0  0  0
 13 22  2  0  0  0  0
 13 23  1  0  0  0  0
 14 26  1  0  0  0  0
 14 27  2  0  0  0  0
 15 25  1  0  0  0  0
 15 28  2  0  0  0  0
 16 17  1  0  0  0  0
 16 18  1  0  0  0  0
 17 19  1  0  0  0  0
 18 20  1  0  0  0  0
 19 24  1  0  0  0  0
 20 24  1  0  0  0  0
 21 29  1  0  0  0  0
 21 30  1  0  0  0  0
  1 31  1  0  0  0  0
  2 32  1  0  0  0  0
  3 33  1  0  0  0  0
  4 34  1  0  0  0  0
  5 35  1  0  0  0  0
  6 36  1  0  0  0  0
 16 37  1  0  0  0  0
 16 38  1  0  0  0  0
 17 39  1  0  0  0  0
 17 40  1  0  0  0  0
 18 41  1  0  0  0  0
 18 42  1  0  0  0  0
 19 43  1  0  0  0  0
 19 44  1  0  0  0  0
 20 45  1  0  0  0  0
 20 46  1  0  0  0  0
 21 47  1  0  0  0  0
 23 48  1  0  0  0  0
 25 49  1  0  0  0  0
 25 50  1  0  0  0  0
 26 51  1  0  0  0  0
M  END
>  <idnumber>
Z1082435940

>  <Chemgauss4>
-13.8621244430542

>  <Hetero-Bemis-Murcko>
c1ccc(c(c1)NCc2ccc3c(c2)nc[nH]3)N4CCCCC4

>  <Hetero-Bemis-Murcko>
c1ccc(c(c1)NCc2ccc3c(c2)nc[nH]3)N4CCCCC4

>  <MW>
413.428

>  <HBD>
3

>  <HBA>
4

>  <RotBonds>
5

>  <XLogP>
2.91699981689453

>  <sLogP>
3.842

>  <TPSA>
104.110000610352

>  <FSP3>
0.286

>  <QED>
0.591

$$$$
Z2039361446
  -OEChem-04242015583D

 54 57  0     1  0  0  0  0  0999 V2000
  -10.0454    4.9287   74.6415 C   0  0  0  0  0  0  0  0  0  0  0  0
  -12.9676   15.6305   73.5054 C   0  0  0  0  0  0  0  0  0  0  0  0
   -9.8234    6.3048   74.6915 C   0  0  0  0  0  0  0  0  0  0  0  0
  -10.7403    4.3728   73.5673 C   0  0  0  0  0  0  0  0  0  0  0  0
  -13.8115   14.6137   73.0587 C   0  0  0  0  0  0  0  0  0  0  0  0
  -11.8891   16.0372   72.7199 C   0  0  0  0  0  0  0  0  0  0  0  0
  -10.2965    7.1252   73.6673 C   0  0  0  0  0  0  0  0  0  0  0  0
  -11.2134    5.1932   72.5432 C   0  0  0  0  0  0  0  0  0  0  0  0
  -13.5768   14.0035   71.8265 C   0  0  0  0  0  0  0  0  0  0  0  0
  -11.6544   15.4271   71.4877 C   0  0  0  0  0  0  0  0  0  0  0  0
  -12.6248   13.7985   65.2563 C   0  0  0  0  0  0  0  0  0  0  0  0
  -11.3335   13.3520   65.2482 C   0  0  0  0  0  0  0  0  0  0  0  0
  -10.9915    6.5694   72.5931 C   0  0  0  0  0  0  0  0  0  0  0  0
  -12.4982   14.4102   71.0410 C   0  0  0  0  0  0  0  0  0  0  0  0
  -11.7429   14.2225   67.2420 C   0  0  0  0  0  0  0  0  0  0  0  0
  -10.6180   10.3764   69.3823 C   0  0  0  0  0  0  0  0  0  0  0  0
  -11.5499   11.4713   69.0161 C   0  0  0  0  0  0  0  0  0  0  0  0
  -12.4965    8.5338   71.9476 C   0  0  0  0  0  0  0  0  0  0  0  0
  -12.4641    9.5422   70.8069 C   0  0  0  0  0  0  0  0  0  0  0  0
  -10.4151    8.2726   70.7783 C   0  0  0  0  0  0  0  0  0  0  0  0
  -11.5042    7.4572   71.4839 C   0  0  1  0  0  0  0  0  0  0  0  0
  -11.5737   14.6861   68.6709 C   0  0  0  0  0  0  0  0  0  0  0  0
  -12.2419   13.7460   69.6989 C   0  0  1  0  0  0  0  0  0  0  0  0
  -12.8513   14.3318   66.5023 N   0  0  0  0  0  0  0  0  0  0  0  0
  -10.8119   13.6275   66.4893 N   0  3  0  0  0  0  0  0  0  0  0  0
  -11.1180    9.4477   70.2670 N   0  0  0  0  0  0  0  0  0  0  0  0
  -11.4380   12.5554   69.8577 N   0  0  0  0  0  0  0  0  0  0  0  0
   -9.5108   10.4034   68.8639 O   0  0  0  0  0  0  0  0  0  0  0  0
  -12.2991   11.3475   68.0595 O   0  0  0  0  0  0  0  0  0  0  0  0
  -12.1434    6.7394   70.5022 F   0  0  0  0  0  0  0  0  0  0  0  0
   -9.6758    4.2899   75.4384 H   0  0  0  0  0  0  0  0  0  0  0  0
  -13.1513   16.1064   74.4642 H   0  0  0  0  0  0  0  0  0  0  0  0
   -9.2814    6.7377   75.5272 H   0  0  0  0  0  0  0  0  0  0  0  0
  -10.9124    3.3013   73.5275 H   0  0  0  0  0  0  0  0  0  0  0  0
  -14.6519   14.2975   73.6697 H   0  0  0  0  0  0  0  0  0  0  0  0
  -11.2325   16.8296   73.0669 H   0  0  0  0  0  0  0  0  0  0  0  0
  -10.1190    8.1964   73.7147 H   0  0  0  0  0  0  0  0  0  0  0  0
  -11.7539    4.7513   71.7103 H   0  0  0  0  0  0  0  0  0  0  0  0
  -14.2394   13.2119   71.4866 H   0  0  0  0  0  0  0  0  0  0  0  0
  -10.8116   15.7505   70.8825 H   0  0  0  0  0  0  0  0  0  0  0  0
  -13.4333   13.8184   64.5529 H   0  0  0  0  0  0  0  0  0  0  0  0
  -10.6936   12.8713   64.5353 H   0  0  0  0  0  0  0  0  0  0  0  0
  -12.1624    9.0116   72.8769 H   0  0  0  0  0  0  0  0  0  0  0  0
  -13.5032    8.1321   72.0991 H   0  0  0  0  0  0  0  0  0  0  0  0
  -13.1625    9.2669   70.0088 H   0  0  0  0  0  0  0  0  0  0  0  0
  -12.6844   10.5643   71.1289 H   0  0  0  0  0  0  0  0  0  0  0  0
   -9.6376    8.6290   71.4639 H   0  0  0  0  0  0  0  0  0  0  0  0
   -9.9494    7.7273   69.9514 H   0  0  0  0  0  0  0  0  0  0  0  0
  -12.0102   15.6919   68.7473 H   0  0  0  0  0  0  0  0  0  0  0  0
  -10.5061   14.8156   68.8924 H   0  0  0  0  0  0  0  0  0  0  0  0
  -13.2043   13.4127   69.2898 H   0  0  0  0  0  0  0  0  0  0  0  0
  -13.7258   14.7452   66.8141 H   0  0  0  0  0  0  0  0  0  0  0  0
   -9.8650   13.4120   66.7894 H   0  0  0  0  0  0  0  0  0  0  0  0
  -10.7655   12.5170   70.6183 H   0  0  0  0  0  0  0  0  0  0  0  0
  1  3  2  0  0  0  0
  1  4  1  0  0  0  0
  2  5  2  0  0  0  0
  2  6  1  0  0  0  0
  3  7  1  0  0  0  0
  4  8  2  0  0  0  0
  5  9  1  0  0  0  0
  6 10  2  0  0  0  0
  7 13  2  0  0  0  0
  8 13  1  0  0  0  0
  9 14  2  0  0  0  0
 10 14  1  0  0  0  0
 11 12  2  0  0  0  0
 11 24  1  0  0  0  0
 12 25  1  0  0  0  0
 13 21  1  0  0  0  0
 14 23  1  0  0  0  0
 15 22  1  0  0  0  0
 15 24  1  0  0  0  0
 15 25  2  0  0  0  0
 16 17  1  0  0  0  0
 16 26  1  0  0  0  0
 16 28  2  0  0  0  0
 17 27  1  0  0  0  0
 17 29  2  0  0  0  0
 18 19  1  0  0  0  0
 18 21  1  0  0  0  0
 19 26  1  0  0  0  0
 20 21  1  0  0  0  0
 20 26  1  0  0  0  0
 21 30  1  1  0  0  0
 22 23  1  6  0  0  0
 23 27  1  0  0  0  0
  1 31  1  0  0  0  0
  2 32  1  0  0  0  0
  3 33  1  0  0  0  0
  4 34  1  0  0  0  0
  5 35  1  0  0  0  0
  6 36  1  0  0  0  0
  7 37  1  0  0  0  0
  8 38  1  0  0  0  0
  9 39  1  0  0  0  0
 10 40  1  0  0  0  0
 11 41  1  0  0  0  0
 12 42  1  0  0  0  0
 18 43  1  0  0  0  0
 18 44  1  0  0  0  0
 19 45  1  0  0  0  0
 19 46  1  0  0  0  0
 20 47  1  0  0  0  0
 20 48  1  0  0  0  0
 22 49  1  0  0  0  0
 22 50  1  0  0  0  0
 23 51  1  0  0  0  0
 24 52  1  0  0  0  0
 25 53  1  0  0  0  0
 27 54  1  0  0  0  0
M  CHG  1  25   1
M  END
>  <idnumber>
Z2039361446

>  <Chemgauss4>
-13.8601856231689

>  <Hetero-Bemis-Murcko>
c1ccc(cc1)C2CCN(C2)CCNC(Cc3[nH]cc[nH+]3)c4ccccc4

>  <Hetero-Bemis-Murcko>
c1ccc(cc1)C2CCN(C2)CCNC(Cc3[nH]cc[nH+]3)c4ccccc4

>  <MW>
406.461

>  <HBD>
2

>  <HBA>
3

>  <RotBonds>
5

>  <XLogP>
2.71399974822998

>  <sLogP>
2.907

>  <TPSA>
79.3399963378906

>  <FSP3>
0.261

>  <QED>
0.64

$$$$
Z3013425477
  -OEChem-04242015583D

 51 53  0     1  0  0  0  0  0999 V2000
  -12.8611   14.7652   73.4594 C   0  0  0  0  0  0  0  0  0  0  0  0
  -12.4756   16.1007   73.4262 C   0  0  0  0  0  0  0  0  0  0  0  0
  -10.2104   13.0571   67.1943 C   0  0  0  0  0  0  0  0  0  0  0  0
  -12.4476   13.6887   66.5364 C   0  0  0  0  0  0  0  0  0  0  0  0
  -10.0805   12.3026   66.0284 C   0  0  0  0  0  0  0  0  0  0  0  0
  -12.3177   12.9342   65.3704 C   0  0  0  0  0  0  0  0  0  0  0  0
  -12.7485   13.9862   72.3131 C   0  0  0  0  0  0  0  0  0  0  0  0
  -11.9877   16.6054   72.2316 C   0  0  0  0  0  0  0  0  0  0  0  0
  -11.3940   13.7501   67.4484 C   0  0  0  0  0  0  0  0  0  0  0  0
  -11.1341   12.2411   65.1164 C   0  0  0  0  0  0  0  0  0  0  0  0
  -12.2485   14.5856   71.1683 C   0  0  0  0  0  0  0  0  0  0  0  0
  -10.5273   10.3623   69.8421 C   0  0  0  0  0  0  0  0  0  0  0  0
  -11.4858   11.4174   69.4311 C   0  0  0  0  0  0  0  0  0  0  0  0
  -10.2063    8.4367   71.4579 C   0  0  0  0  0  0  0  0  0  0  0  0
  -12.2507    9.7148   71.5054 C   0  0  0  0  0  0  0  0  0  0  0  0
  -11.2319    7.7156   72.3362 C   0  0  2  0  0  0  0  0  0  0  0  0
  -12.1438    8.8683   72.7626 C   0  0  2  0  0  0  0  0  0  0  0  0
  -10.6005    6.9667   73.4975 C   0  0  0  0  0  0  0  0  0  0  0  0
  -11.5346   14.5693   68.7111 C   0  0  0  0  0  0  0  0  0  0  0  0
  -12.1117   13.7649   69.8972 C   0  0  1  0  0  0  0  0  0  0  0  0
  -11.8638   15.8797   71.0978 N   0  0  0  0  0  0  0  0  0  0  0  0
  -10.9499    9.5504   70.8699 N   0  0  0  0  0  0  0  0  0  0  0  0
  -11.2989   12.5918   70.1255 N   0  0  0  0  0  0  0  0  0  0  0  0
  -13.4673    8.3859   73.1955 N   0  3  0  0  0  0  0  0  0  0  0  0
   -9.4696   10.3145   69.2304 O   0  0  0  0  0  0  0  0  0  0  0  0
  -12.3162   11.1908   68.5644 O   0  0  0  0  0  0  0  0  0  0  0  0
  -10.9736   11.3104   63.6781 Cl  0  0  0  0  0  0  0  0  0  0  0  0
  -13.2484   14.3323   74.3768 H   0  0  0  0  0  0  0  0  0  0  0  0
  -12.5546   16.7267   74.3076 H   0  0  0  0  0  0  0  0  0  0  0  0
   -9.3850   13.0998   67.9001 H   0  0  0  0  0  0  0  0  0  0  0  0
  -13.3730   14.2259   66.7268 H   0  0  0  0  0  0  0  0  0  0  0  0
   -9.1522   11.7681   65.8437 H   0  0  0  0  0  0  0  0  0  0  0  0
  -13.1471   12.8955   64.6690 H   0  0  0  0  0  0  0  0  0  0  0  0
  -13.0457   12.9431   72.3258 H   0  0  0  0  0  0  0  0  0  0  0  0
  -11.6735   17.6410   72.1535 H   0  0  0  0  0  0  0  0  0  0  0  0
   -9.3801    8.8591   72.0410 H   0  0  0  0  0  0  0  0  0  0  0  0
   -9.7958    7.7917   70.6750 H   0  0  0  0  0  0  0  0  0  0  0  0
  -13.0045    9.3410   70.8026 H   0  0  0  0  0  0  0  0  0  0  0  0
  -12.4502   10.7714   71.7086 H   0  0  0  0  0  0  0  0  0  0  0  0
  -11.7891    7.0051   71.7099 H   0  0  0  0  0  0  0  0  0  0  0  0
  -11.7177    9.4437   73.5931 H   0  0  0  0  0  0  0  0  0  0  0  0
  -10.0417    7.6568   74.1321 H   0  0  0  0  0  0  0  0  0  0  0  0
   -9.9169    6.2013   73.1255 H   0  0  0  0  0  0  0  0  0  0  0  0
  -11.3727    6.4842   74.0995 H   0  0  0  0  0  0  0  0  0  0  0  0
  -12.1919   15.4201   68.4832 H   0  0  0  0  0  0  0  0  0  0  0  0
  -10.5649   15.0136   68.9721 H   0  0  0  0  0  0  0  0  0  0  0  0
  -13.1068   13.3973   69.6155 H   0  0  0  0  0  0  0  0  0  0  0  0
  -10.5626   12.6352   70.8241 H   0  0  0  0  0  0  0  0  0  0  0  0
  -14.2100    8.6978   72.5549 H   0  0  0  0  0  0  0  0  0  0  0  0
  -13.7053    8.7328   74.1349 H   0  0  0  0  0  0  0  0  0  0  0  0
  -13.5011    7.3578   73.2290 H   0  0  0  0  0  0  0  0  0  0  0  0
  1  2  2  0  0  0  0
  1  7  1  0  0  0  0
  2  8  1  0  0  0  0
  3  5  1  0  0  0  0
  3  9  2  0  0  0  0
  4  6  2  0  0  0  0
  4  9  1  0  0  0  0
  5 10  2  0  0  0  0
  6 10  1  0  0  0  0
  7 11  2  0  0  0  0
  8 21  2  0  0  0  0
  9 19  1  0  0  0  0
 10 27  1  0  0  0  0
 11 20  1  0  0  0  0
 11 21  1  0  0  0  0
 12 13  1  0  0  0  0
 12 22  1  0  0  0  0
 12 25  2  0  0  0  0
 13 23  1  0  0  0  0
 13 26  2  0  0  0  0
 14 16  1  0  0  0  0
 14 22  1  0  0  0  0
 15 17  1  0  0  0  0
 15 22  1  0  0  0  0
 16 17  1  0  0  0  0
 16 18  1  0  0  0  0
 17 24  1  0  0  0  0
 19 20  1  6  0  0  0
 20 23  1  0  0  0  0
  1 28  1  0  0  0  0
  2 29  1  0  0  0  0
  3 30  1  0  0  0  0
  4 31  1  0  0  0  0
  5 32  1  0  0  0  0
  6 33  1  0  0  0  0
  7 34  1  0  0  0  0
  8 35  1  0  0  0  0
 14 36  1  0  0  0  0
 14 37  1  0  0  0  0
 15 38  1  0  0  0  0
 15 39  1  0  0  0  0
 16 40  1  6  0  0  0
 17 41  1  6  0  0  0
 18 42  1  0  0  0  0
 18 43  1  0  0  0  0
 18 44  1  0  0  0  0
 19 45  1  0  0  0  0
 19 46  1  0  0  0  0
 20 47  1  0  0  0  0
 23 48  1  0  0  0  0
 24 49  1  0  0  0  0
 24 50  1  0  0  0  0
 24 51  1  0  0  0  0
M  CHG  1  24   1
M  END
>  <idnumber>
Z3013425477

>  <Chemgauss4>
-13.8566884994507

>  <Hetero-Bemis-Murcko>
c1ccc(cc1)CC(c2ccccn2)NCCN3CCCC3

>  <Hetero-Bemis-Murcko>
c1ccc(cc1)CC(c2ccccn2)NCCN3CCCC3

>  <MW>
386.883

>  <HBD>
2

>  <HBA>
4

>  <RotBonds>
4

>  <XLogP>
1.29499971866608

>  <sLogP>
1.941

>  <TPSA>
89.9399948120117

>  <FSP3>
0.35

>  <QED>
0.786

$$$$
Z2366882425
  -OEChem-04242015583D

 51 53  0     1  0  0  0  0  0999 V2000
  -12.8611   14.7652   73.4594 C   0  0  0  0  0  0  0  0  0  0  0  0
  -12.4756   16.1007   73.4262 C   0  0  0  0  0  0  0  0  0  0  0  0
  -10.2104   13.0571   67.1943 C   0  0  0  0  0  0  0  0  0  0  0  0
  -12.4476   13.6887   66.5364 C   0  0  0  0  0  0  0  0  0  0  0  0
  -10.0805   12.3026   66.0284 C   0  0  0  0  0  0  0  0  0  0  0  0
  -12.3177   12.9342   65.3704 C   0  0  0  0  0  0  0  0  0  0  0  0
  -12.7485   13.9862   72.3131 C   0  0  0  0  0  0  0  0  0  0  0  0
  -11.9877   16.6054   72.2316 C   0  0  0  0  0  0  0  0  0  0  0  0
  -11.3940   13.7501   67.4484 C   0  0  0  0  0  0  0  0  0  0  0  0
  -11.1341   12.2411   65.1164 C   0  0  0  0  0  0  0  0  0  0  0  0
  -12.2485   14.5856   71.1683 C   0  0  0  0  0  0  0  0  0  0  0  0
  -10.5273   10.3623   69.8421 C   0  0  0  0  0  0  0  0  0  0  0  0
  -11.4858   11.4174   69.4311 C   0  0  0  0  0  0  0  0  0  0  0  0
  -10.2063    8.4367   71.4579 C   0  0  0  0  0  0  0  0  0  0  0  0
  -12.2507    9.7148   71.5054 C   0  0  0  0  0  0  0  0  0  0  0  0
  -11.2319    7.7156   72.3362 C   0  0  2  0  0  0  0  0  0  0  0  0
  -12.1438    8.8683   72.7626 C   0  0  2  0  0  0  0  0  0  0  0  0
  -10.6005    6.9667   73.4975 C   0  0  0  0  0  0  0  0  0  0  0  0
  -11.5346   14.5693   68.7111 C   0  0  0  0  0  0  0  0  0  0  0  0
  -12.1117   13.7649   69.8972 C   0  0  1  0  0  0  0  0  0  0  0  0
  -11.8638   15.8797   71.0978 N   0  0  0  0  0  0  0  0  0  0  0  0
  -10.9499    9.5504   70.8699 N   0  0  0  0  0  0  0  0  0  0  0  0
  -11.2989   12.5918   70.1255 N   0  0  0  0  0  0  0  0  0  0  0  0
  -13.4673    8.3859   73.1955 N   0  3  0  0  0  0  0  0  0  0  0  0
   -9.4696   10.3145   69.2304 O   0  0  0  0  0  0  0  0  0  0  0  0
  -12.3162   11.1908   68.5644 O   0  0  0  0  0  0  0  0  0  0  0  0
  -10.9736   11.3104   63.6781 Cl  0  0  0  0  0  0  0  0  0  0  0  0
  -13.2484   14.3323   74.3768 H   0  0  0  0  0  0  0  0  0  0  0  0
  -12.5546   16.7267   74.3076 H   0  0  0  0  0  0  0  0  0  0  0  0
   -9.3850   13.0998   67.9001 H   0  0  0  0  0  0  0  0  0  0  0  0
  -13.3730   14.2259   66.7268 H   0  0  0  0  0  0  0  0  0  0  0  0
   -9.1522   11.7681   65.8437 H   0  0  0  0  0  0  0  0  0  0  0  0
  -13.1471   12.8955   64.6690 H   0  0  0  0  0  0  0  0  0  0  0  0
  -13.0457   12.9431   72.3258 H   0  0  0  0  0  0  0  0  0  0  0  0
  -11.6735   17.6410   72.1535 H   0  0  0  0  0  0  0  0  0  0  0  0
   -9.3801    8.8591   72.0410 H   0  0  0  0  0  0  0  0  0  0  0  0
   -9.7958    7.7917   70.6750 H   0  0  0  0  0  0  0  0  0  0  0  0
  -13.0045    9.3410   70.8026 H   0  0  0  0  0  0  0  0  0  0  0  0
  -12.4502   10.7714   71.7086 H   0  0  0  0  0  0  0  0  0  0  0  0
  -11.7891    7.0051   71.7099 H   0  0  0  0  0  0  0  0  0  0  0  0
  -11.7177    9.4437   73.5931 H   0  0  0  0  0  0  0  0  0  0  0  0
  -10.0417    7.6568   74.1321 H   0  0  0  0  0  0  0  0  0  0  0  0
   -9.9169    6.2013   73.1255 H   0  0  0  0  0  0  0  0  0  0  0  0
  -11.3727    6.4842   74.0995 H   0  0  0  0  0  0  0  0  0  0  0  0
  -12.1919   15.4201   68.4832 H   0  0  0  0  0  0  0  0  0  0  0  0
  -10.5649   15.0136   68.9721 H   0  0  0  0  0  0  0  0  0  0  0  0
  -13.1068   13.3973   69.6155 H   0  0  0  0  0  0  0  0  0  0  0  0
  -10.5626   12.6352   70.8241 H   0  0  0  0  0  0  0  0  0  0  0  0
  -14.2100    8.6978   72.5549 H   0  0  0  0  0  0  0  0  0  0  0  0
  -13.7053    8.7328   74.1349 H   0  0  0  0  0  0  0  0  0  0  0  0
  -13.5011    7.3578   73.2290 H   0  0  0  0  0  0  0  0  0  0  0  0
  1  2  2  0  0  0  0
  1  7  1  0  0  0  0
  2  8  1  0  0  0  0
  3  5  1  0  0  0  0
  3  9  2  0  0  0  0
  4  6  2  0  0  0  0
  4  9  1  0  0  0  0
  5 10  2  0  0  0  0
  6 10  1  0  0  0  0
  7 11  2  0  0  0  0
  8 21  2  0  0  0  0
  9 19  1  0  0  0  0
 10 27  1  0  0  0  0
 11 20  1  0  0  0  0
 11 21  1  0  0  0  0
 12 13  1  0  0  0  0
 12 22  1  0  0  0  0
 12 25  2  0  0  0  0
 13 23  1  0  0  0  0
 13 26  2  0  0  0  0
 14 16  1  0  0  0  0
 14 22  1  0  0  0  0
 15 17  1  0  0  0  0
 15 22  1  0  0  0  0
 16 17  1  0  0  0  0
 16 18  1  1  0  0  0
 17 24  1  1  0  0  0
 19 20  1  6  0  0  0
 20 23  1  0  0  0  0
  1 28  1  0  0  0  0
  2 29  1  0  0  0  0
  3 30  1  0  0  0  0
  4 31  1  0  0  0  0
  5 32  1  0  0  0  0
  6 33  1  0  0  0  0
  7 34  1  0  0  0  0
  8 35  1  0  0  0  0
 14 36  1  0  0  0  0
 14 37  1  0  0  0  0
 15 38  1  0  0  0  0
 15 39  1  0  0  0  0
 16 40  1  0  0  0  0
 17 41  1  0  0  0  0
 18 42  1  0  0  0  0
 18 43  1  0  0  0  0
 18 44  1  0  0  0  0
 19 45  1  0  0  0  0
 19 46  1  0  0  0  0
 20 47  1  0  0  0  0
 23 48  1  0  0  0  0
 24 49  1  0  0  0  0
 24 50  1  0  0  0  0
 24 51  1  0  0  0  0
M  CHG  1  24   1
M  END
>  <idnumber>
Z2366882425

>  <Chemgauss4>
-13.8566884994507

>  <Hetero-Bemis-Murcko>
c1ccc(cc1)CC(c2ccccn2)NCCN3CCCC3

>  <Hetero-Bemis-Murcko>
c1ccc(cc1)CC(c2ccccn2)NCCN3CCCC3

>  <MW>
386.883

>  <HBD>
2

>  <HBA>
4

>  <RotBonds>
4

>  <XLogP>
1.29499971866608

>  <sLogP>
1.941

>  <TPSA>
89.9399948120117

>  <FSP3>
0.35

>  <QED>
0.786

$$$$
Z298622200
  -OEChem-04242015583D

 55 58  0     0  0  0  0  0  0999 V2000
  -12.9370   10.1963   70.9298 C   0  0  0  0  0  0  0  0  0  0  0  0
  -11.0054   16.2759   67.4326 C   0  0  0  0  0  0  0  0  0  0  0  0
  -13.0981    9.2571   71.9525 C   0  0  0  0  0  0  0  0  0  0  0  0
  -11.5833   16.3664   68.6988 C   0  0  0  0  0  0  0  0  0  0  0  0
  -10.5275    9.8951   70.9538 C   0  0  0  0  0  0  0  0  0  0  0  0
  -10.6801   13.9031   67.7506 C   0  0  0  0  0  0  0  0  0  0  0  0
  -10.6650    8.9450   71.9852 C   0  0  0  0  0  0  0  0  0  0  0  0
  -11.6725   10.5119   70.4367 C   0  0  0  0  0  0  0  0  0  0  0  0
  -10.5538   15.0442   66.9584 C   0  0  0  0  0  0  0  0  0  0  0  0
   -9.7495    8.1458   72.7256 C   0  0  0  0  0  0  0  0  0  0  0  0
  -11.9446    8.6485   72.4598 C   0  0  0  0  0  0  0  0  0  0  0  0
  -11.7096   15.2252   69.4910 C   0  0  0  0  0  0  0  0  0  0  0  0
  -11.2580   13.9936   69.0169 C   0  0  0  0  0  0  0  0  0  0  0  0
  -10.4773    7.3939   73.6188 C   0  0  0  0  0  0  0  0  0  0  0  0
  -11.5371   11.5064   69.3586 C   0  0  0  0  0  0  0  0  0  0  0  0
   -9.9521   14.9505   65.6377 C   0  0  0  0  0  0  0  0  0  0  0  0
  -13.5934   15.6723   73.3140 C   0  0  0  0  0  0  0  0  0  0  0  0
  -12.0812   15.7916   73.1702 C   0  0  0  0  0  0  0  0  0  0  0  0
  -14.1482   14.7224   72.2595 C   0  0  0  0  0  0  0  0  0  0  0  0
  -11.6816   16.2202   71.7591 C   0  0  0  0  0  0  0  0  0  0  0  0
  -13.7500   15.1586   70.8512 C   0  0  0  0  0  0  0  0  0  0  0  0
   -8.2801    8.1257   72.5666 C   0  0  0  0  0  0  0  0  0  0  0  0
  -10.0505    6.4033   74.6258 C   0  0  0  0  0  0  0  0  0  0  0  0
  -11.8002    7.7039   73.4508 N   0  0  0  0  0  0  0  0  0  0  0  0
  -12.2942   15.3388   70.7585 N   0  0  0  0  0  0  0  0  0  0  0  0
   -9.5177   13.6988   65.2114 N   0  0  0  0  0  0  0  0  0  0  0  0
  -11.3753   12.8364   69.7919 N   0  0  0  0  0  0  0  0  0  0  0  0
  -11.5998   11.1717   68.1776 O   0  0  0  0  0  0  0  0  0  0  0  0
   -9.8124   15.9538   64.9164 O   0  0  0  0  0  0  0  0  0  0  0  0
  -13.8206   10.6816   70.5204 H   0  0  0  0  0  0  0  0  0  0  0  0
  -10.9119   17.1712   66.8234 H   0  0  0  0  0  0  0  0  0  0  0  0
  -14.0829    9.0119   72.3356 H   0  0  0  0  0  0  0  0  0  0  0  0
  -11.9313   17.3317   69.0578 H   0  0  0  0  0  0  0  0  0  0  0  0
   -9.5432   10.1448   70.5658 H   0  0  0  0  0  0  0  0  0  0  0  0
  -10.3277   12.9431   67.3787 H   0  0  0  0  0  0  0  0  0  0  0  0
  -13.8430   15.3026   74.3159 H   0  0  0  0  0  0  0  0  0  0  0  0
  -14.0571   16.6592   73.2079 H   0  0  0  0  0  0  0  0  0  0  0  0
  -11.6979   16.5200   73.8959 H   0  0  0  0  0  0  0  0  0  0  0  0
  -11.6121   14.8301   73.4076 H   0  0  0  0  0  0  0  0  0  0  0  0
  -13.7785   13.7080   72.4472 H   0  0  0  0  0  0  0  0  0  0  0  0
  -15.2418   14.6823   72.3361 H   0  0  0  0  0  0  0  0  0  0  0  0
  -12.0030   17.2575   71.6015 H   0  0  0  0  0  0  0  0  0  0  0  0
  -10.5886   16.1923   71.6583 H   0  0  0  0  0  0  0  0  0  0  0  0
  -14.0790   14.4076   70.1213 H   0  0  0  0  0  0  0  0  0  0  0  0
  -14.2649   16.0984   70.6150 H   0  0  0  0  0  0  0  0  0  0  0  0
   -7.8012    8.8680   73.2247 H   0  0  0  0  0  0  0  0  0  0  0  0
   -7.8534    7.1377   72.8065 H   0  0  0  0  0  0  0  0  0  0  0  0
   -7.9751    8.3477   71.5304 H   0  0  0  0  0  0  0  0  0  0  0  0
   -9.8498    6.8847   75.5971 H   0  0  0  0  0  0  0  0  0  0  0  0
  -10.8145    5.6240   74.7900 H   0  0  0  0  0  0  0  0  0  0  0  0
   -9.1335    5.8707   74.3201 H   0  0  0  0  0  0  0  0  0  0  0  0
  -12.5634    7.2994   73.9762 H   0  0  0  0  0  0  0  0  0  0  0  0
   -9.6314   12.8990   65.8247 H   0  0  0  0  0  0  0  0  0  0  0  0
   -9.0898   13.5687   64.3003 H   0  0  0  0  0  0  0  0  0  0  0  0
  -11.3386   12.9738   70.8074 H   0  0  0  0  0  0  0  0  0  0  0  0
  1  3  1  0  0  0  0
  1  8  2  0  0  0  0
  2  4  1  0  0  0  0
  2  9  2  0  0  0  0
  3 11  2  0  0  0  0
  4 12  2  0  0  0  0
  5  7  2  0  0  0  0
  5  8  1  0  0  0  0
  6  9  1  0  0  0  0
  6 13  2  0  0  0  0
  7 10  1  0  0  0  0
  7 11  1  0  0  0  0
  8 15  1  0  0  0  0
  9 16  1  0  0  0  0
 10 14  2  0  0  0  0
 10 22  1  0  0  0  0
 11 24  1  0  0  0  0
 12 13  1  0  0  0  0
 12 25  1  0  0  0  0
 13 27  1  0  0  0  0
 14 23  1  0  0  0  0
 14 24  1  0  0  0  0
 15 27  1  0  0  0  0
 15 28  2  0  0  0  0
 16 26  1  0  0  0  0
 16 29  2  0  0  0  0
 17 18  1  0  0  0  0
 17 19  1  0  0  0  0
 18 20  1  0  0  0  0
 19 21  1  0  0  0  0
 20 25  1  0  0  0  0
 21 25  1  0  0  0  0
  1 30  1  0  0  0  0
  2 31  1  0  0  0  0
  3 32  1  0  0  0  0
  4 33  1  0  0  0  0
  5 34  1  0  0  0  0
  6 35  1  0  0  0  0
 17 36  1  0  0  0  0
 17 37  1  0  0  0  0
 18 38  1  0  0  0  0
 18 39  1  0  0  0  0
 19 40  1  0  0  0  0
 19 41  1  0  0  0  0
 20 42  1  0  0  0  0
 20 43  1  0  0  0  0
 21 44  1  0  0  0  0
 21 45  1  0  0  0  0
 22 46  1  0  0  0  0
 22 47  1  0  0  0  0
 22 48  1  0  0  0  0
 23 49  1  0  0  0  0
 23 50  1  0  0  0  0
 23 51  1  0  0  0  0
 24 52  1  0  0  0  0
 26 53  1  0  0  0  0
 26 54  1  0  0  0  0
 27 55  1  0  0  0  0
M  END
>  <idnumber>
Z298622200

>  <Chemgauss4>
-13.8549137115479

>  <Hetero-Bemis-Murcko>
c1ccc(c(c1)NCc2ccc3c(c2)cc[nH]3)N4CCCCC4

>  <Hetero-Bemis-Murcko>
c1ccc(c(c1)NCc2ccc3c(c2)cc[nH]3)N4CCCCC4

>  <MW>
390.487

>  <HBD>
3

>  <HBA>
3

>  <RotBonds>
4

>  <XLogP>
3.25799989700317

>  <sLogP>
4.126

>  <TPSA>
91.2200012207031

>  <FSP3>
0.304

>  <QED>
0.626

$$$$
Z2445655548
  -OEChem-04242015583D

 53 56  0     1  0  0  0  0  0999 V2000
  -12.4986   13.1822   64.8599 C   0  0  0  0  0  0  0  0  0  0  0  0
  -11.3437   12.7741   65.5272 C   0  0  0  0  0  0  0  0  0  0  0  0
  -13.3627   14.0992   65.4584 C   0  0  0  0  0  0  0  0  0  0  0  0
  -11.5016   16.3840   72.7146 C   0  0  0  0  0  0  0  0  0  0  0  0
  -12.5086   16.0656   73.6258 C   0  0  0  0  0  0  0  0  0  0  0  0
  -11.0529   13.2829   66.7929 C   0  0  0  0  0  0  0  0  0  0  0  0
  -13.0719   14.6080   66.7242 C   0  0  0  0  0  0  0  0  0  0  0  0
  -11.4020   15.6838   71.5123 C   0  0  0  0  0  0  0  0  0  0  0  0
  -13.4158   15.0468   73.3348 C   0  0  0  0  0  0  0  0  0  0  0  0
  -11.9170   14.1998   67.3915 C   0  0  0  0  0  0  0  0  0  0  0  0
  -12.3092   14.6650   71.2213 C   0  0  0  0  0  0  0  0  0  0  0  0
  -13.3161   14.3465   72.1325 C   0  0  0  0  0  0  0  0  0  0  0  0
  -10.7032   10.4688   69.6817 C   0  0  0  0  0  0  0  0  0  0  0  0
  -11.6347   11.5675   69.3270 C   0  0  0  0  0  0  0  0  0  0  0  0
  -11.5785    6.4677   72.4552 C   0  0  0  0  0  0  0  0  0  0  0  0
  -10.6576    7.1560   73.4169 C   0  0  0  0  0  0  0  0  0  0  0  0
  -12.4319    9.8016   71.3277 C   0  0  0  0  0  0  0  0  0  0  0  0
  -10.4520    8.4277   71.1516 C   0  0  0  0  0  0  0  0  0  0  0  0
  -12.3169    9.0108   72.6274 C   0  0  2  0  0  0  0  0  0  0  0  0
  -11.2978    7.9468   72.3008 C   0  0  0  0  0  0  0  0  0  0  0  0
  -11.6026   14.7515   68.7634 C   0  0  0  0  0  0  0  0  0  0  0  0
  -12.1975   13.9048   69.9108 C   0  0  1  0  0  0  0  0  0  0  0  0
  -11.1421    9.6238   70.6769 N   0  0  0  0  0  0  0  0  0  0  0  0
  -11.4152   12.7010   70.0777 N   0  0  0  0  0  0  0  0  0  0  0  0
  -13.6693    8.5807   73.0562 N   0  3  0  0  0  0  0  0  0  0  0  0
   -9.6491   10.4245   69.0636 O   0  0  0  0  0  0  0  0  0  0  0  0
  -12.4732   11.4060   68.4535 O   0  0  0  0  0  0  0  0  0  0  0  0
  -14.1926   13.3694   71.8616 F   0  0  0  0  0  0  0  0  0  0  0  0
  -12.7242   12.7870   63.8738 H   0  0  0  0  0  0  0  0  0  0  0  0
  -10.6702   12.0610   65.0608 H   0  0  0  0  0  0  0  0  0  0  0  0
  -14.2614   14.4180   64.9388 H   0  0  0  0  0  0  0  0  0  0  0  0
  -10.7947   17.1771   72.9414 H   0  0  0  0  0  0  0  0  0  0  0  0
  -12.5858   16.6104   74.5621 H   0  0  0  0  0  0  0  0  0  0  0  0
  -10.1508   12.9591   67.3055 H   0  0  0  0  0  0  0  0  0  0  0  0
  -13.7510   15.3219   67.1828 H   0  0  0  0  0  0  0  0  0  0  0  0
  -10.6138   15.9385   70.8088 H   0  0  0  0  0  0  0  0  0  0  0  0
  -14.2002   14.7988   74.0439 H   0  0  0  0  0  0  0  0  0  0  0  0
  -11.1354    5.7815   71.7428 H   0  0  0  0  0  0  0  0  0  0  0  0
  -12.5395    6.1412   72.8317 H   0  0  0  0  0  0  0  0  0  0  0  0
  -11.0133    7.3106   74.4286 H   0  0  0  0  0  0  0  0  0  0  0  0
   -9.6002    6.9299   73.3490 H   0  0  0  0  0  0  0  0  0  0  0  0
  -13.1841    9.3810   70.6493 H   0  0  0  0  0  0  0  0  0  0  0  0
  -12.6534   10.8623   71.4820 H   0  0  0  0  0  0  0  0  0  0  0  0
   -9.4389    8.7018   71.4628 H   0  0  0  0  0  0  0  0  0  0  0  0
  -10.4021    7.7030   70.3325 H   0  0  0  0  0  0  0  0  0  0  0  0
  -11.9311    9.6564   73.4256 H   0  0  0  0  0  0  0  0  0  0  0  0
  -12.0023   15.7742   68.8094 H   0  0  0  0  0  0  0  0  0  0  0  0
  -10.5158   14.8593   68.8772 H   0  0  0  0  0  0  0  0  0  0  0  0
  -13.2026   13.5777   69.6152 H   0  0  0  0  0  0  0  0  0  0  0  0
  -10.6761   12.6906   70.7746 H   0  0  0  0  0  0  0  0  0  0  0  0
  -14.3186    8.5626   72.2621 H   0  0  0  0  0  0  0  0  0  0  0  0
  -14.0517    9.2202   73.7616 H   0  0  0  0  0  0  0  0  0  0  0  0
  -13.6438    7.6397   73.4643 H   0  0  0  0  0  0  0  0  0  0  0  0
  1  2  2  0  0  0  0
  1  3  1  0  0  0  0
  2  6  1  0  0  0  0
  3  7  2  0  0  0  0
  4  5  2  0  0  0  0
  4  8  1  0  0  0  0
  5  9  1  0  0  0  0
  6 10  2  0  0  0  0
  7 10  1  0  0  0  0
  8 11  2  0  0  0  0
  9 12  2  0  0  0  0
 10 21  1  0  0  0  0
 11 12  1  0  0  0  0
 11 22  1  0  0  0  0
 12 28  1  0  0  0  0
 13 14  1  0  0  0  0
 13 23  1  0  0  0  0
 13 26  2  0  0  0  0
 14 24  1  0  0  0  0
 14 27  2  0  0  0  0
 15 16  1  0  0  0  0
 15 20  1  0  0  0  0
 16 20  1  0  0  0  0
 17 19  1  0  0  0  0
 17 23  1  0  0  0  0
 18 20  1  0  0  0  0
 18 23  1  0  0  0  0
 19 20  1  0  0  0  0
 19 25  1  1  0  0  0
 21 22  1  6  0  0  0
 22 24  1  0  0  0  0
  1 29  1  0  0  0  0
  2 30  1  0  0  0  0
  3 31  1  0  0  0  0
  4 32  1  0  0  0  0
  5 33  1  0  0  0  0
  6 34  1  0  0  0  0
  7 35  1  0  0  0  0
  8 36  1  0  0  0  0
  9 37  1  0  0  0  0
 15 38  1  0  0  0  0
 15 39  1  0  0  0  0
 16 40  1  0  0  0  0
 16 41  1  0  0  0  0
 17 42  1  0  0  0  0
 17 43  1  0  0  0  0
 18 44  1  0  0  0  0
 18 45  1  0  0  0  0
 19 46  1  0  0  0  0
 21 47  1  0  0  0  0
 21 48  1  0  0  0  0
 22 49  1  0  0  0  0
 24 50  1  0  0  0  0
 25 51  1  0  0  0  0
 25 52  1  0  0  0  0
 25 53  1  0  0  0  0
M  CHG  1  25   1
M  END
>  <idnumber>
Z2445655548

>  <Chemgauss4>
-13.8515148162842

>  <Hetero-Bemis-Murcko>
c1ccc(cc1)CC(c2ccccc2)NCCN3CCC4(C3)CC4

>  <Hetero-Bemis-Murcko>
c1ccc(cc1)CC(c2ccccc2)NCCN3CCC4(C3)CC4

>  <MW>
381.451

>  <HBD>
2

>  <HBA>
3

>  <RotBonds>
4

>  <XLogP>
2.58799982070923

>  <sLogP>
2.175

>  <TPSA>
77.0499954223633

>  <FSP3>
0.364

>  <QED>
0.797

$$$$
Z2213646794
  -OEChem-04242015583D

 54 58  0     1  0  0  0  0  0999 V2000
  -11.0370   12.0103   63.4167 C   0  0  0  0  0  0  0  0  0  0  0  0
  -12.2762   12.6438   63.2990 C   0  0  0  0  0  0  0  0  0  0  0  0
  -13.0848    9.5374   71.4267 C   0  0  0  0  0  0  0  0  0  0  0  0
  -13.3683   13.8819   71.9946 C   0  0  0  0  0  0  0  0  0  0  0  0
  -12.2607   15.9727   71.5058 C   0  0  0  0  0  0  0  0  0  0  0  0
  -10.3721   11.9490   64.6478 C   0  0  0  0  0  0  0  0  0  0  0  0
  -12.8955   13.2378   64.4037 C   0  0  0  0  0  0  0  0  0  0  0  0
  -12.8461    8.4758   72.3006 C   0  0  0  0  0  0  0  0  0  0  0  0
  -13.3890   14.2097   73.3502 C   0  0  0  0  0  0  0  0  0  0  0  0
  -12.2815   16.3005   72.8615 C   0  0  0  0  0  0  0  0  0  0  0  0
  -10.7003   10.0090   71.2809 C   0  0  0  0  0  0  0  0  0  0  0  0
  -12.0189   10.2981   70.9188 C   0  0  0  0  0  0  0  0  0  0  0  0
  -10.4732    8.9473   72.1391 C   0  0  0  0  0  0  0  0  0  0  0  0
  -12.8041   14.7633   71.0724 C   0  0  0  0  0  0  0  0  0  0  0  0
  -10.9796   12.5406   65.7682 C   0  0  0  0  0  0  0  0  0  0  0  0
  -12.2150   13.1646   65.6196 C   0  0  0  0  0  0  0  0  0  0  0  0
  -11.5340    8.1993   72.6334 C   0  0  0  0  0  0  0  0  0  0  0  0
  -12.8457   15.4190   73.7837 C   0  0  0  0  0  0  0  0  0  0  0  0
  -11.4902   13.2754   67.7069 C   0  0  0  0  0  0  0  0  0  0  0  0
  -12.2917   11.4063   70.0169 C   0  0  0  0  0  0  0  0  0  0  0  0
   -9.7164    7.1011   73.2662 C   0  0  0  0  0  0  0  0  0  0  0  0
   -9.2091    8.4531   72.7443 C   0  0  1  0  0  0  0  0  0  0  0  0
   -8.0303    8.3154   71.7972 C   0  0  0  0  0  0  0  0  0  0  0  0
  -12.7821   14.4085   69.6031 C   0  0  0  0  0  0  0  0  0  0  0  0
  -11.5111   13.6373   69.1822 C   0  0  1  0  0  0  0  0  0  0  0  0
  -10.5453   12.6194   67.0715 N   0  0  0  0  0  0  0  0  0  0  0  0
  -12.5174   13.6254   66.8753 N   0  0  0  0  0  0  0  0  0  0  0  0
  -11.3680   12.4577   70.0049 N   0  0  0  0  0  0  0  0  0  0  0  0
  -13.3165   11.4088   69.3123 O   0  0  0  0  0  0  0  0  0  0  0  0
  -11.1451    7.1927   73.4818 O   0  0  0  0  0  0  0  0  0  0  0  0
  -12.8671   15.7393   75.1063 O   0  0  0  0  0  0  0  0  0  0  0  0
  -10.5812   11.5573   62.5398 H   0  0  0  0  0  0  0  0  0  0  0  0
  -12.7690   12.6775   62.3304 H   0  0  0  0  0  0  0  0  0  0  0  0
  -14.1087    9.7718   71.1453 H   0  0  0  0  0  0  0  0  0  0  0  0
  -13.7938   12.9376   71.6658 H   0  0  0  0  0  0  0  0  0  0  0  0
  -11.8189   16.6656   70.7944 H   0  0  0  0  0  0  0  0  0  0  0  0
   -9.4099   11.4534   64.7285 H   0  0  0  0  0  0  0  0  0  0  0  0
  -13.8578   13.7290   64.3145 H   0  0  0  0  0  0  0  0  0  0  0  0
  -13.6661    7.8886   72.6980 H   0  0  0  0  0  0  0  0  0  0  0  0
  -13.8303   13.5189   74.0638 H   0  0  0  0  0  0  0  0  0  0  0  0
  -11.8570   17.2441   73.1927 H   0  0  0  0  0  0  0  0  0  0  0  0
   -9.8745   10.6069   70.9082 H   0  0  0  0  0  0  0  0  0  0  0  0
   -9.5403    6.2855   72.5527 H   0  0  0  0  0  0  0  0  0  0  0  0
   -9.2309    6.8320   74.2107 H   0  0  0  0  0  0  0  0  0  0  0  0
   -8.9457    9.1031   73.5876 H   0  0  0  0  0  0  0  0  0  0  0  0
   -8.2933    7.6683   70.9581 H   0  0  0  0  0  0  0  0  0  0  0  0
   -7.1752    7.8813   72.3189 H   0  0  0  0  0  0  0  0  0  0  0  0
   -7.7425    9.2939   71.4074 H   0  0  0  0  0  0  0  0  0  0  0  0
  -12.8543   15.3460   69.0341 H   0  0  0  0  0  0  0  0  0  0  0  0
  -13.6878   13.8431   69.3468 H   0  0  0  0  0  0  0  0  0  0  0  0
  -10.6373   14.2665   69.3952 H   0  0  0  0  0  0  0  0  0  0  0  0
  -13.3526   14.1326   67.1366 H   0  0  0  0  0  0  0  0  0  0  0  0
  -10.5816   12.4346   70.6458 H   0  0  0  0  0  0  0  0  0  0  0  0
  -12.4547   16.6061   75.2493 H   0  0  0  0  0  0  0  0  0  0  0  0
  1  2  2  0  0  0  0
  1  6  1  0  0  0  0
  2  7  1  0  0  0  0
  3  8  1  0  0  0  0
  3 12  2  0  0  0  0
  4  9  1  0  0  0  0
  4 14  2  0  0  0  0
  5 10  2  0  0  0  0
  5 14  1  0  0  0  0
  6 15  2  0  0  0  0
  7 16  2  0  0  0  0
  8 17  2  0  0  0  0
  9 18  2  0  0  0  0
 10 18  1  0  0  0  0
 11 12  1  0  0  0  0
 11 13  2  0  0  0  0
 12 20  1  0  0  0  0
 13 17  1  0  0  0  0
 13 22  1  0  0  0  0
 14 24  1  0  0  0  0
 15 16  1  0  0  0  0
 15 26  1  0  0  0  0
 16 27  1  0  0  0  0
 17 30  1  0  0  0  0
 18 31  1  0  0  0  0
 19 25  1  0  0  0  0
 19 26  2  0  0  0  0
 19 27  1  0  0  0  0
 20 28  1  0  0  0  0
 20 29  2  0  0  0  0
 21 22  1  0  0  0  0
 21 30  1  0  0  0  0
 22 23  1  1  0  0  0
 24 25  1  6  0  0  0
 25 28  1  0  0  0  0
  1 32  1  0  0  0  0
  2 33  1  0  0  0  0
  3 34  1  0  0  0  0
  4 35  1  0  0  0  0
  5 36  1  0  0  0  0
  6 37  1  0  0  0  0
  7 38  1  0  0  0  0
  8 39  1  0  0  0  0
  9 40  1  0  0  0  0
 10 41  1  0  0  0  0
 11 42  1  0  0  0  0
 21 43  1  0  0  0  0
 21 44  1  0  0  0  0
 22 45  1  0  0  0  0
 23 46  1  0  0  0  0
 23 47  1  0  0  0  0
 23 48  1  0  0  0  0
 24 49  1  0  0  0  0
 24 50  1  0  0  0  0
 25 51  1  0  0  0  0
 27 52  1  0  0  0  0
 28 53  1  0  0  0  0
 31 54  1  0  0  0  0
M  END
>  <idnumber>
Z2213646794

>  <Chemgauss4>
-13.8489112854004

>  <Hetero-Bemis-Murcko>
c1ccc(cc1)CC(c2[nH]c3ccccc3n2)NCc4ccc5c(c4)CCO5

>  <Hetero-Bemis-Murcko>
c1ccc(cc1)CC(c2[nH]c3ccccc3n2)NCc4ccc5c(c4)CCO5

>  <MW>
413.477

>  <HBD>
3

>  <HBA>
4

>  <RotBonds>
5

>  <XLogP>
3.55200004577637

>  <sLogP>
4.478

>  <TPSA>
87.2399978637695

>  <FSP3>
0.2

>  <QED>
0.45

$$$$
Z2126798881
  -OEChem-04242015583D

 57 60  0     1  0  0  0  0  0999 V2000
  -11.3096   12.1152   64.8811 C   0  0  0  0  0  0  0  0  0  0  0  0
  -10.2866   11.9895   65.8209 C   0  0  0  0  0  0  0  0  0  0  0  0
  -12.3603   13.0041   65.1084 C   0  0  0  0  0  0  0  0  0  0  0  0
  -11.5821   16.6211   72.1091 C   0  0  0  0  0  0  0  0  0  0  0  0
  -12.2095   16.1273   73.2529 C   0  0  0  0  0  0  0  0  0  0  0  0
  -10.3144   12.7526   66.9882 C   0  0  0  0  0  0  0  0  0  0  0  0
  -12.3880   13.7672   66.2757 C   0  0  0  0  0  0  0  0  0  0  0  0
  -11.5591   15.8580   70.9417 C   0  0  0  0  0  0  0  0  0  0  0  0
  -12.8138   14.8704   73.2292 C   0  0  0  0  0  0  0  0  0  0  0  0
  -11.3651   13.6415   67.2156 C   0  0  0  0  0  0  0  0  0  0  0  0
  -12.1634   14.6011   70.9180 C   0  0  0  0  0  0  0  0  0  0  0  0
  -12.7908   14.1073   72.0618 C   0  0  0  0  0  0  0  0  0  0  0  0
  -13.6815    8.7523   72.1421 C   0  0  0  0  0  0  0  0  0  0  0  0
  -11.1661   10.1470   69.6048 C   0  0  0  0  0  0  0  0  0  0  0  0
  -11.9149   11.3535   69.1770 C   0  0  0  0  0  0  0  0  0  0  0  0
  -13.0049    9.7836   71.2597 C   0  0  0  0  0  0  0  0  0  0  0  0
  -10.3786    6.5239   73.5182 C   0  0  0  0  0  0  0  0  0  0  0  0
   -9.4537    7.6895   73.1820 C   0  0  0  0  0  0  0  0  0  0  0  0
  -11.1140    6.0198   72.2785 C   0  0  0  0  0  0  0  0  0  0  0  0
  -10.2056    8.8246   72.4913 C   0  0  0  0  0  0  0  0  0  0  0  0
  -11.8746    7.1333   71.5491 C   0  0  2  0  0  0  0  0  0  0  0  0
  -10.9631    8.3249   71.2493 C   0  0  1  0  0  0  0  0  0  0  0  0
  -11.3959   14.4687   68.4805 C   0  0  0  0  0  0  0  0  0  0  0  0
  -12.1364   13.7731   69.6446 C   0  0  1  0  0  0  0  0  0  0  0  0
  -13.0448    7.5474   72.3051 N   0  0  0  0  0  0  0  0  0  0  0  0
  -11.7379    9.4078   70.6375 N   0  0  0  0  0  0  0  0  0  0  0  0
  -11.5463   12.4758   69.8851 N   0  0  0  0  0  0  0  0  0  0  0  0
  -14.7490    9.0149   72.6997 O   0  0  0  0  0  0  0  0  0  0  0  0
  -10.1182    9.9334   69.0098 O   0  0  0  0  0  0  0  0  0  0  0  0
  -12.7481   11.2780   68.2866 O   0  0  0  0  0  0  0  0  0  0  0  0
  -13.3744   12.9008   72.0487 F   0  0  0  0  0  0  0  0  0  0  0  0
  -11.2871   11.5219   63.9716 H   0  0  0  0  0  0  0  0  0  0  0  0
   -9.4679   11.2982   65.6436 H   0  0  0  0  0  0  0  0  0  0  0  0
  -13.1563   13.1030   64.3764 H   0  0  0  0  0  0  0  0  0  0  0  0
  -11.1109   17.5998   72.1276 H   0  0  0  0  0  0  0  0  0  0  0  0
  -12.2269   16.7212   74.1619 H   0  0  0  0  0  0  0  0  0  0  0  0
   -9.5131   12.6479   67.7150 H   0  0  0  0  0  0  0  0  0  0  0  0
  -13.2107   14.4570   66.4444 H   0  0  0  0  0  0  0  0  0  0  0  0
  -11.0673   16.2507   70.0556 H   0  0  0  0  0  0  0  0  0  0  0  0
  -13.3027   14.4857   74.1195 H   0  0  0  0  0  0  0  0  0  0  0  0
  -13.7158   10.0634   70.4747 H   0  0  0  0  0  0  0  0  0  0  0  0
  -12.8093   10.6702   71.8742 H   0  0  0  0  0  0  0  0  0  0  0  0
   -9.7938    5.7064   73.9548 H   0  0  0  0  0  0  0  0  0  0  0  0
  -11.1036    6.8373   74.2789 H   0  0  0  0  0  0  0  0  0  0  0  0
   -8.9836    8.0634   74.0986 H   0  0  0  0  0  0  0  0  0  0  0  0
   -8.6451    7.3378   72.5294 H   0  0  0  0  0  0  0  0  0  0  0  0
  -10.3825    5.5814   71.5872 H   0  0  0  0  0  0  0  0  0  0  0  0
  -11.7974    5.2082   72.5559 H   0  0  0  0  0  0  0  0  0  0  0  0
  -10.8996    9.2768   73.2107 H   0  0  0  0  0  0  0  0  0  0  0  0
   -9.4917    9.6060   72.2042 H   0  0  0  0  0  0  0  0  0  0  0  0
  -12.2616    6.7280   70.6054 H   0  0  0  0  0  0  0  0  0  0  0  0
  -10.2098    7.9952   70.5210 H   0  0  0  0  0  0  0  0  0  0  0  0
  -11.8889   15.4215   68.2420 H   0  0  0  0  0  0  0  0  0  0  0  0
  -10.3714   14.7368   68.7707 H   0  0  0  0  0  0  0  0  0  0  0  0
  -13.1720   13.5850   69.3337 H   0  0  0  0  0  0  0  0  0  0  0  0
  -13.4150    6.9041   72.9982 H   0  0  0  0  0  0  0  0  0  0  0  0
  -10.8331   12.3886   70.6034 H   0  0  0  0  0  0  0  0  0  0  0  0
  1  2  2  0  0  0  0
  1  3  1  0  0  0  0
  2  6  1  0  0  0  0
  3  7  2  0  0  0  0
  4  5  2  0  0  0  0
  4  8  1  0  0  0  0
  5  9  1  0  0  0  0
  6 10  2  0  0  0  0
  7 10  1  0  0  0  0
  8 11  2  0  0  0  0
  9 12  2  0  0  0  0
 10 23  1  0  0  0  0
 11 12  1  0  0  0  0
 11 24  1  0  0  0  0
 12 31  1  0  0  0  0
 13 16  1  0  0  0  0
 13 25  1  0  0  0  0
 13 28  2  0  0  0  0
 14 15  1  0  0  0  0
 14 26  1  0  0  0  0
 14 29  2  0  0  0  0
 15 27  1  0  0  0  0
 15 30  2  0  0  0  0
 16 26  1  0  0  0  0
 17 18  1  0  0  0  0
 17 19  1  0  0  0  0
 18 20  1  0  0  0  0
 19 21  1  1  0  0  0
 20 22  1  6  0  0  0
 21 22  1  0  0  0  0
 21 25  1  0  0  0  0
 22 26  1  0  0  0  0
 23 24  1  6  0  0  0
 24 27  1  0  0  0  0
  1 32  1  0  0  0  0
  2 33  1  0  0  0  0
  3 34  1  0  0  0  0
  4 35  1  0  0  0  0
  5 36  1  0  0  0  0
  6 37  1  0  0  0  0
  7 38  1  0  0  0  0
  8 39  1  0  0  0  0
  9 40  1  0  0  0  0
 16 41  1  0  0  0  0
 16 42  1  0  0  0  0
 17 43  1  0  0  0  0
 17 44  1  0  0  0  0
 18 45  1  0  0  0  0
 18 46  1  0  0  0  0
 19 47  1  0  0  0  0
 19 48  1  0  0  0  0
 20 49  1  0  0  0  0
 20 50  1  0  0  0  0
 21 51  1  0  0  0  0
 22 52  1  0  0  0  0
 23 53  1  0  0  0  0
 23 54  1  0  0  0  0
 24 55  1  0  0  0  0
 25 56  1  0  0  0  0
 27 57  1  0  0  0  0
M  END
>  <idnumber>
Z2126798881

>  <Chemgauss4>
-13.8329591751099

>  <Hetero-Bemis-Murcko>
c1ccc(cc1)CC(c2ccccc2)NCCN3CCNC4C3CCCC4

>  <Hetero-Bemis-Murcko>
c1ccc(cc1)CC(c2ccccc2)NCCN3CCNC4C3CCCC4

>  <MW>
423.488

>  <HBD>
2

>  <HBA>
3

>  <RotBonds>
4

>  <XLogP>
3.19999980926514

>  <sLogP>
2.495

>  <TPSA>
78.5099945068359

>  <FSP3>
0.375

>  <QED>
0.742

$$$$
Z2076125325
  -OEChem-04242015583D

 58 61  0     1  0  0  0  0  0999 V2000
   -9.7951    5.3252   69.3892 C   0  0  0  0  0  0  0  0  0  0  0  0
  -13.6456   14.8322   71.5995 C   0  0  0  0  0  0  0  0  0  0  0  0
  -11.2462   15.0550   71.7736 C   0  0  0  0  0  0  0  0  0  0  0  0
  -10.8621   13.0612   66.7918 C   0  0  0  0  0  0  0  0  0  0  0  0
  -12.7910   14.4964   66.5536 C   0  0  0  0  0  0  0  0  0  0  0  0
  -13.7985   15.5545   72.7829 C   0  0  0  0  0  0  0  0  0  0  0  0
  -11.3991   15.7774   72.9569 C   0  0  0  0  0  0  0  0  0  0  0  0
  -11.0844   12.5501   65.5131 C   0  0  0  0  0  0  0  0  0  0  0  0
  -13.0133   13.9854   65.2749 C   0  0  0  0  0  0  0  0  0  0  0  0
   -9.5039    6.2397   70.4313 C   0  0  0  0  0  0  0  0  0  0  0  0
  -10.9732    5.7316   68.8025 C   0  0  0  0  0  0  0  0  0  0  0  0
  -11.7154   14.0343   67.3120 C   0  0  0  0  0  0  0  0  0  0  0  0
  -12.3694   14.5823   71.0949 C   0  0  0  0  0  0  0  0  0  0  0  0
  -12.6753   16.0272   73.4616 C   0  0  0  0  0  0  0  0  0  0  0  0
  -12.1600   13.0122   64.7546 C   0  0  0  0  0  0  0  0  0  0  0  0
  -10.5130    7.1772   70.4497 C   0  0  0  0  0  0  0  0  0  0  0  0
  -10.8964   10.2784   69.7316 C   0  0  0  0  0  0  0  0  0  0  0  0
  -11.7329   11.4215   69.2941 C   0  0  0  0  0  0  0  0  0  0  0  0
  -12.9894    8.4584   72.1915 C   0  0  0  0  0  0  0  0  0  0  0  0
  -11.5711    8.0505   72.5827 C   0  0  0  0  0  0  0  0  0  0  0  0
  -12.7795    9.6697   71.2975 C   0  0  0  0  0  0  0  0  0  0  0  0
  -10.7300    8.3835   71.3443 C   0  0  2  0  0  0  0  0  0  0  0  0
  -11.6344   17.1868   75.2582 C   0  0  0  0  0  0  0  0  0  0  0  0
  -11.4746   14.5892   68.6975 C   0  0  0  0  0  0  0  0  0  0  0  0
  -12.2026   13.7961   69.8057 C   0  0  1  0  0  0  0  0  0  0  0  0
  -11.4006    6.8581   69.4555 N   0  0  0  0  0  0  0  0  0  0  0  0
  -11.4628    9.4755   70.6992 N   0  0  0  0  0  0  0  0  0  0  0  0
  -11.5060   12.5527   70.0461 N   0  0  0  0  0  0  0  0  0  0  0  0
   -9.8029   10.1642   69.1970 O   0  0  0  0  0  0  0  0  0  0  0  0
  -12.5107   11.2938   68.3609 O   0  0  0  0  0  0  0  0  0  0  0  0
  -12.8248   16.7332   74.6156 O   0  0  0  0  0  0  0  0  0  0  0  0
  -12.3720   12.5235   63.5256 F   0  0  0  0  0  0  0  0  0  0  0  0
   -9.2112    4.4637   69.0975 H   0  0  0  0  0  0  0  0  0  0  0  0
  -14.5262   14.4676   71.0774 H   0  0  0  0  0  0  0  0  0  0  0  0
  -10.2479   14.8650   71.3878 H   0  0  0  0  0  0  0  0  0  0  0  0
  -10.0219   12.6944   67.3755 H   0  0  0  0  0  0  0  0  0  0  0  0
  -13.4609   15.2546   66.9505 H   0  0  0  0  0  0  0  0  0  0  0  0
  -14.7954   15.7462   73.1709 H   0  0  0  0  0  0  0  0  0  0  0  0
  -10.5204   16.1432   73.4806 H   0  0  0  0  0  0  0  0  0  0  0  0
  -10.4199   11.7931   65.1077 H   0  0  0  0  0  0  0  0  0  0  0  0
  -13.8508   14.3446   64.6842 H   0  0  0  0  0  0  0  0  0  0  0  0
   -8.6503    6.2143   71.0947 H   0  0  0  0  0  0  0  0  0  0  0  0
  -11.5434    5.3199   67.9817 H   0  0  0  0  0  0  0  0  0  0  0  0
  -13.4699    7.6514   71.6260 H   0  0  0  0  0  0  0  0  0  0  0  0
  -13.6107    8.6841   73.0629 H   0  0  0  0  0  0  0  0  0  0  0  0
  -11.2403    8.6694   73.4260 H   0  0  0  0  0  0  0  0  0  0  0  0
  -11.5177    7.0004   72.8876 H   0  0  0  0  0  0  0  0  0  0  0  0
  -13.5478    9.7653   70.5247 H   0  0  0  0  0  0  0  0  0  0  0  0
  -12.7480   10.5949   71.8835 H   0  0  0  0  0  0  0  0  0  0  0  0
   -9.7143    8.7593   71.6563 H   0  0  0  0  0  0  0  0  0  0  0  0
  -11.8961   17.7355   76.1662 H   0  0  0  0  0  0  0  0  0  0  0  0
  -11.0755   17.8335   74.5772 H   0  0  0  0  0  0  0  0  0  0  0  0
  -11.0212   16.3218   75.5218 H   0  0  0  0  0  0  0  0  0  0  0  0
  -11.8171   15.6335   68.7008 H   0  0  0  0  0  0  0  0  0  0  0  0
  -10.3952   14.6372   68.8929 H   0  0  0  0  0  0  0  0  0  0  0  0
  -13.1996   13.5217   69.4378 H   0  0  0  0  0  0  0  0  0  0  0  0
  -12.2428    7.3724   69.2359 H   0  0  0  0  0  0  0  0  0  0  0  0
  -10.8237   12.5117   70.7977 H   0  0  0  0  0  0  0  0  0  0  0  0
  1 10  1  0  0  0  0
  1 11  2  0  0  0  0
  2  6  1  0  0  0  0
  2 13  2  0  0  0  0
  3  7  2  0  0  0  0
  3 13  1  0  0  0  0
  4  8  1  0  0  0  0
  4 12  2  0  0  0  0
  5  9  2  0  0  0  0
  5 12  1  0  0  0  0
  6 14  2  0  0  0  0
  7 14  1  0  0  0  0
  8 15  2  0  0  0  0
  9 15  1  0  0  0  0
 10 16  2  0  0  0  0
 11 26  1  0  0  0  0
 12 24  1  0  0  0  0
 13 25  1  0  0  0  0
 14 31  1  0  0  0  0
 15 32  1  0  0  0  0
 16 22  1  1  0  0  0
 16 26  1  0  0  0  0
 17 18  1  0  0  0  0
 17 27  1  0  0  0  0
 17 29  2  0  0  0  0
 18 28  1  0  0  0  0
 18 30  2  0  0  0  0
 19 20  1  0  0  0  0
 19 21  1  0  0  0  0
 20 22  1  0  0  0  0
 21 27  1  0  0  0  0
 22 27  1  0  0  0  0
 23 31  1  0  0  0  0
 24 25  1  1  0  0  0
 25 28  1  0  0  0  0
  1 33  1  0  0  0  0
  2 34  1  0  0  0  0
  3 35  1  0  0  0  0
  4 36  1  0  0  0  0
  5 37  1  0  0  0  0
  6 38  1  0  0  0  0
  7 39  1  0  0  0  0
  8 40  1  0  0  0  0
  9 41  1  0  0  0  0
 10 42  1  0  0  0  0
 11 43  1  0  0  0  0
 19 44  1  0  0  0  0
 19 45  1  0  0  0  0
 20 46  1  0  0  0  0
 20 47  1  0  0  0  0
 21 48  1  0  0  0  0
 21 49  1  0  0  0  0
 22 50  1  0  0  0  0
 23 51  1  0  0  0  0
 23 52  1  0  0  0  0
 23 53  1  0  0  0  0
 24 54  1  0  0  0  0
 24 55  1  0  0  0  0
 25 56  1  0  0  0  0
 26 57  1  0  0  0  0
 28 58  1  0  0  0  0
M  END
>  <idnumber>
Z2076125325

>  <Chemgauss4>
-13.8267478942871

>  <Hetero-Bemis-Murcko>
c1ccc(cc1)CC(c2ccccc2)NCCN3CCCC3c4ccc[nH]4

>  <Hetero-Bemis-Murcko>
c1ccc(cc1)CC(c2ccccc2)NCCN3CCCC3c4ccc[nH]4

>  <MW>
435.499

>  <HBD>
2

>  <HBA>
3

>  <RotBonds>
6

>  <XLogP>
3.46200013160706

>  <sLogP>
3.926

>  <TPSA>
74.4300003051758

>  <FSP3>
0.28

>  <QED>
0.576

$$$$
Z1082024640
  -OEChem-04242015583D

 54 56  0     1  0  0  0  0  0999 V2000
  -12.7880   16.1246   73.0469 C   0  0  0  0  0  0  0  0  0  0  0  0
   -9.0220    6.2043   72.3404 C   0  0  0  0  0  0  0  0  0  0  0  0
  -13.7182   15.1423   72.7070 C   0  0  0  0  0  0  0  0  0  0  0  0
  -11.6601   16.3225   72.2504 C   0  0  0  0  0  0  0  0  0  0  0  0
   -9.9043    5.9625   71.2875 C   0  0  0  0  0  0  0  0  0  0  0  0
   -8.9512    7.4741   72.9134 C   0  0  0  0  0  0  0  0  0  0  0  0
  -13.5205   14.3579   71.5706 C   0  0  0  0  0  0  0  0  0  0  0  0
  -11.4624   15.5381   71.1140 C   0  0  0  0  0  0  0  0  0  0  0  0
  -10.7158    6.9905   70.8075 C   0  0  0  0  0  0  0  0  0  0  0  0
   -9.7627    8.5021   72.4334 C   0  0  0  0  0  0  0  0  0  0  0  0
  -10.7166   12.8046   66.6236 C   0  0  0  0  0  0  0  0  0  0  0  0
  -12.6280   14.2291   66.2303 C   0  0  0  0  0  0  0  0  0  0  0  0
  -10.8885   12.2266   65.3659 C   0  0  0  0  0  0  0  0  0  0  0  0
  -12.7998   13.6511   64.9725 C   0  0  0  0  0  0  0  0  0  0  0  0
  -11.5864   13.8058   67.0559 C   0  0  0  0  0  0  0  0  0  0  0  0
  -12.3925   14.5558   70.7742 C   0  0  0  0  0  0  0  0  0  0  0  0
  -10.6450    8.2603   71.3804 C   0  0  0  0  0  0  0  0  0  0  0  0
  -11.9301   12.6499   64.5403 C   0  0  0  0  0  0  0  0  0  0  0  0
  -11.6935   11.2908   69.1702 C   0  0  0  0  0  0  0  0  0  0  0  0
  -13.8905    8.7025   71.2777 C   0  0  0  0  0  0  0  0  0  0  0  0
  -11.4002   14.4332   68.4187 C   0  0  0  0  0  0  0  0  0  0  0  0
  -10.8404   10.1607   69.7295 C   0  0  0  0  0  0  0  0  0  0  0  0
  -12.1764   13.7017   69.5365 C   0  0  1  0  0  0  0  0  0  0  0  0
  -11.5260    9.3775   70.8593 C   0  0  1  0  0  0  0  0  0  0  0  0
  -14.9921    8.1870   70.6185 N   0  0  0  0  0  0  0  0  0  0  0  0
  -11.4960   12.4723   69.8709 N   0  0  0  0  0  0  0  0  0  0  0  0
  -12.8056    8.8577   70.4277 N   0  0  0  0  0  0  0  0  0  0  0  0
  -12.4489   11.1575   68.2114 O   0  0  0  0  0  0  0  0  0  0  0  0
  -13.9006    8.9806   72.4756 O   0  0  0  0  0  0  0  0  0  0  0  0
  -12.0936   12.0969   63.3313 F   0  0  0  0  0  0  0  0  0  0  0  0
  -12.9428   16.7362   73.9310 H   0  0  0  0  0  0  0  0  0  0  0  0
   -8.3912    5.4034   72.7150 H   0  0  0  0  0  0  0  0  0  0  0  0
  -14.5970   14.9888   73.3264 H   0  0  0  0  0  0  0  0  0  0  0  0
  -10.9363   17.0879   72.5141 H   0  0  0  0  0  0  0  0  0  0  0  0
   -9.9604    4.9736   70.8420 H   0  0  0  0  0  0  0  0  0  0  0  0
   -8.2652    7.6625   73.7339 H   0  0  0  0  0  0  0  0  0  0  0  0
  -14.2504   13.5948   71.3136 H   0  0  0  0  0  0  0  0  0  0  0  0
  -10.5806   15.6993   70.4995 H   0  0  0  0  0  0  0  0  0  0  0  0
  -11.4002    6.7929   69.9866 H   0  0  0  0  0  0  0  0  0  0  0  0
   -9.7006    9.4883   72.8859 H   0  0  0  0  0  0  0  0  0  0  0  0
   -9.9026   12.4677   67.2601 H   0  0  0  0  0  0  0  0  0  0  0  0
  -13.3104   15.0087   66.5585 H   0  0  0  0  0  0  0  0  0  0  0  0
  -10.2111   11.4477   65.0290 H   0  0  0  0  0  0  0  0  0  0  0  0
  -13.6109   13.9801   64.3296 H   0  0  0  0  0  0  0  0  0  0  0  0
  -11.7381   15.4769   68.3524 H   0  0  0  0  0  0  0  0  0  0  0  0
  -10.3295   14.4892   68.6555 H   0  0  0  0  0  0  0  0  0  0  0  0
  -10.6125    9.4863   68.8934 H   0  0  0  0  0  0  0  0  0  0  0  0
   -9.8912   10.5911   70.0742 H   0  0  0  0  0  0  0  0  0  0  0  0
  -13.1587   13.4102   69.1430 H   0  0  0  0  0  0  0  0  0  0  0  0
  -11.7554   10.0662   71.6822 H   0  0  0  0  0  0  0  0  0  0  0  0
  -14.9646    7.9626   69.6297 H   0  0  0  0  0  0  0  0  0  0  0  0
  -15.8642    8.0158   71.1079 H   0  0  0  0  0  0  0  0  0  0  0  0
  -10.8458   12.4725   70.6513 H   0  0  0  0  0  0  0  0  0  0  0  0
  -12.9146    8.5935   69.4547 H   0  0  0  0  0  0  0  0  0  0  0  0
  1  3  2  0  0  0  0
  1  4  1  0  0  0  0
  2  5  2  0  0  0  0
  2  6  1  0  0  0  0
  3  7  1  0  0  0  0
  4  8  2  0  0  0  0
  5  9  1  0  0  0  0
  6 10  2  0  0  0  0
  7 16  2  0  0  0  0
  8 16  1  0  0  0  0
  9 17  2  0  0  0  0
 10 17  1  0  0  0  0
 11 13  1  0  0  0  0
 11 15  2  0  0  0  0
 12 14  2  0  0  0  0
 12 15  1  0  0  0  0
 13 18  2  0  0  0  0
 14 18  1  0  0  0  0
 15 21  1  0  0  0  0
 16 23  1  0  0  0  0
 17 24  1  0  0  0  0
 18 30  1  0  0  0  0
 19 22  1  0  0  0  0
 19 26  1  0  0  0  0
 19 28  2  0  0  0  0
 20 25  1  0  0  0  0
 20 27  1  0  0  0  0
 20 29  2  0  0  0  0
 21 23  1  6  0  0  0
 22 24  1  6  0  0  0
 23 26  1  0  0  0  0
 24 27  1  0  0  0  0
  1 31  1  0  0  0  0
  2 32  1  0  0  0  0
  3 33  1  0  0  0  0
  4 34  1  0  0  0  0
  5 35  1  0  0  0  0
  6 36  1  0  0  0  0
  7 37  1  0  0  0  0
  8 38  1  0  0  0  0
  9 39  1  0  0  0  0
 10 40  1  0  0  0  0
 11 41  1  0  0  0  0
 12 42  1  0  0  0  0
 13 43  1  0  0  0  0
 14 44  1  0  0  0  0
 21 45  1  0  0  0  0
 21 46  1  0  0  0  0
 22 47  1  0  0  0  0
 22 48  1  0  0  0  0
 23 49  1  0  0  0  0
 24 50  1  0  0  0  0
 25 51  1  0  0  0  0
 25 52  1  0  0  0  0
 26 53  1  0  0  0  0
 27 54  1  0  0  0  0
M  END
>  <idnumber>
Z1082024640

>  <Chemgauss4>
-13.8246097564697

>  <Hetero-Bemis-Murcko>
c1ccc(cc1)CCCNC(Cc2ccccc2)c3ccccc3

>  <Hetero-Bemis-Murcko>
c1ccc(cc1)CCCNC(Cc2ccccc2)c3ccccc3

>  <MW>
405.473

>  <HBD>
3

>  <HBA>
2

>  <RotBonds>
8

>  <XLogP>
3.98699998855591

>  <sLogP>
4.025

>  <TPSA>
84.2200012207031

>  <FSP3>
0.167

>  <QED>
0.529

$$$$
Z1175898429
  -OEChem-04242015583D

 53 56  0     1  0  0  0  0  0999 V2000
  -13.5434   15.3589   73.3618 C   0  0  0  0  0  0  0  0  0  0  0  0
  -12.2703   15.9249   73.4278 C   0  0  0  0  0  0  0  0  0  0  0  0
  -13.9748   14.7477   72.1844 C   0  0  0  0  0  0  0  0  0  0  0  0
  -11.4286   15.8799   72.3164 C   0  0  0  0  0  0  0  0  0  0  0  0
  -13.1331   14.7027   71.0731 C   0  0  0  0  0  0  0  0  0  0  0  0
  -12.1763    7.0528   71.4909 C   0  0  0  0  0  0  0  0  0  0  0  0
  -11.5737    6.3967   72.5681 C   0  0  0  0  0  0  0  0  0  0  0  0
  -10.2648    8.3686   73.1116 C   0  0  0  0  0  0  0  0  0  0  0  0
  -10.7292   10.3620   71.4945 C   0  0  0  0  0  0  0  0  0  0  0  0
  -10.8589    9.0504   72.0311 C   0  0  0  0  0  0  0  0  0  0  0  0
  -11.8599   15.2687   71.1391 C   0  0  0  0  0  0  0  0  0  0  0  0
  -11.7990    8.3781   71.2472 C   0  0  0  0  0  0  0  0  0  0  0  0
  -10.6325    7.0426   73.3673 C   0  0  0  0  0  0  0  0  0  0  0  0
  -11.5771   10.4587   70.4153 C   0  0  0  0  0  0  0  0  0  0  0  0
  -11.8036   11.6242   69.5223 C   0  0  0  0  0  0  0  0  0  0  0  0
   -9.8053   12.5932   65.7738 C   0  0  0  0  0  0  0  0  0  0  0  0
  -11.9973   13.7419   66.0129 C   0  0  0  0  0  0  0  0  0  0  0  0
  -10.4685   11.6776   64.7591 C   0  0  0  0  0  0  0  0  0  0  0  0
  -12.5472   12.7672   64.9854 C   0  0  0  0  0  0  0  0  0  0  0  0
  -10.9487   15.2198   69.9346 C   0  0  0  0  0  0  0  0  0  0  0  0
  -10.2842   13.9435   67.8211 C   0  0  0  0  0  0  0  0  0  0  0  0
  -11.1930   13.9826   69.0522 C   0  0  1  0  0  0  0  0  0  0  0  0
  -12.2182    9.2572   70.2742 N   0  0  0  0  0  0  0  0  0  0  0  0
  -11.0659   12.7594   69.8144 N   0  0  0  0  0  0  0  0  0  0  0  0
  -10.8601   13.0686   66.7450 N   0  3  0  0  0  0  0  0  0  0  0  0
  -12.6227   11.5322   68.6118 O   0  0  0  0  0  0  0  0  0  0  0  0
  -11.5205   12.3630   64.0782 O   0  0  0  0  0  0  0  0  0  0  0  0
   -9.9126    6.2010   74.6872 Cl  0  0  0  0  0  0  0  0  0  0  0  0
  -14.1982   15.3928   74.2276 H   0  0  0  0  0  0  0  0  0  0  0  0
  -11.9338   16.3998   74.3447 H   0  0  0  0  0  0  0  0  0  0  0  0
  -14.9655   14.3060   72.1330 H   0  0  0  0  0  0  0  0  0  0  0  0
  -10.4383   16.3237   72.3769 H   0  0  0  0  0  0  0  0  0  0  0  0
  -13.4777   14.2246   70.1600 H   0  0  0  0  0  0  0  0  0  0  0  0
  -12.9086    6.5486   70.8691 H   0  0  0  0  0  0  0  0  0  0  0  0
  -11.8546    5.3656   72.7722 H   0  0  0  0  0  0  0  0  0  0  0  0
   -9.5304    8.8735   73.7338 H   0  0  0  0  0  0  0  0  0  0  0  0
  -10.0833   11.1483   71.8621 H   0  0  0  0  0  0  0  0  0  0  0  0
   -9.0363   12.0652   66.3457 H   0  0  0  0  0  0  0  0  0  0  0  0
   -9.3809   13.4837   65.2973 H   0  0  0  0  0  0  0  0  0  0  0  0
  -11.5872   14.6402   65.5388 H   0  0  0  0  0  0  0  0  0  0  0  0
  -12.7568   14.0147   66.7519 H   0  0  0  0  0  0  0  0  0  0  0  0
   -9.7355   11.3684   64.0072 H   0  0  0  0  0  0  0  0  0  0  0  0
  -10.8619   10.7677   65.2281 H   0  0  0  0  0  0  0  0  0  0  0  0
  -12.9911   11.8837   65.4596 H   0  0  0  0  0  0  0  0  0  0  0  0
  -13.3323   13.2545   64.3988 H   0  0  0  0  0  0  0  0  0  0  0  0
   -9.9053   15.2575   70.2737 H   0  0  0  0  0  0  0  0  0  0  0  0
  -11.1093   16.1344   69.3487 H   0  0  0  0  0  0  0  0  0  0  0  0
  -10.1666   14.9383   67.3792 H   0  0  0  0  0  0  0  0  0  0  0  0
   -9.2964   13.5383   68.0608 H   0  0  0  0  0  0  0  0  0  0  0  0
  -12.2289   13.9949   68.6913 H   0  0  0  0  0  0  0  0  0  0  0  0
  -12.9008    9.0429   69.5601 H   0  0  0  0  0  0  0  0  0  0  0  0
  -10.4533   12.7823   70.6222 H   0  0  0  0  0  0  0  0  0  0  0  0
  -11.2445   12.2376   67.2154 H   0  0  0  0  0  0  0  0  0  0  0  0
  1  2  2  0  0  0  0
  1  3  1  0  0  0  0
  2  4  1  0  0  0  0
  3  5  2  0  0  0  0
  4 11  2  0  0  0  0
  5 11  1  0  0  0  0
  6  7  1  0  0  0  0
  6 12  2  0  0  0  0
  7 13  2  0  0  0  0
  8 10  2  0  0  0  0
  8 13  1  0  0  0  0
  9 10  1  0  0  0  0
  9 14  2  0  0  0  0
 10 12  1  0  0  0  0
 11 20  1  0  0  0  0
 12 23  1  0  0  0  0
 13 28  1  0  0  0  0
 14 15  1  0  0  0  0
 14 23  1  0  0  0  0
 15 24  1  0  0  0  0
 15 26  2  0  0  0  0
 16 18  1  0  0  0  0
 16 25  1  0  0  0  0
 17 19  1  0  0  0  0
 17 25  1  0  0  0  0
 18 27  1  0  0  0  0
 19 27  1  0  0  0  0
 20 22  1  1  0  0  0
 21 22  1  0  0  0  0
 21 25  1  0  0  0  0
 22 24  1  0  0  0  0
  1 29  1  0  0  0  0
  2 30  1  0  0  0  0
  3 31  1  0  0  0  0
  4 32  1  0  0  0  0
  5 33  1  0  0  0  0
  6 34  1  0  0  0  0
  7 35  1  0  0  0  0
  8 36  1  0  0  0  0
  9 37  1  0  0  0  0
 16 38  1  0  0  0  0
 16 39  1  0  0  0  0
 17 40  1  0  0  0  0
 17 41  1  0  0  0  0
 18 42  1  0  0  0  0
 18 43  1  0  0  0  0
 19 44  1  0  0  0  0
 19 45  1  0  0  0  0
 20 46  1  0  0  0  0
 20 47  1  0  0  0  0
 21 48  1  0  0  0  0
 21 49  1  0  0  0  0
 22 50  1  0  0  0  0
 23 51  1  0  0  0  0
 24 52  1  0  0  0  0
 25 53  1  0  0  0  0
M  CHG  1  25   1
M  END
>  <idnumber>
Z1175898429

>  <Chemgauss4>
-13.8245897293091

>  <Hetero-Bemis-Murcko>
c1ccc(cc1)CC(C[NH+]2CCOCC2)NCc3cc4ccccc4[nH]3

>  <Hetero-Bemis-Murcko>
c1ccc(cc1)CC(C[NH+]2CCOCC2)NCc3cc4ccccc4[nH]3

>  <MW>
397.906

>  <HBD>
2

>  <HBA>
3

>  <RotBonds>
6

>  <XLogP>
2.96000003814697

>  <sLogP>
3.495

>  <TPSA>
58.5599975585938

>  <FSP3>
0.318

>  <QED>
0.669

$$$$
Z1579693328
  -OEChem-04242015583D

 60 63  0     1  0  0  0  0  0999 V2000
  -11.0771    6.8126   72.1520 C   0  0  0  0  0  0  0  0  0  0  0  0
  -10.6479    7.3138   70.9232 C   0  0  0  0  0  0  0  0  0  0  0  0
  -11.9750    7.5449   72.9287 C   0  0  0  0  0  0  0  0  0  0  0  0
  -11.1165    8.5473   70.4710 C   0  0  0  0  0  0  0  0  0  0  0  0
  -12.4436    8.7785   72.4766 C   0  0  0  0  0  0  0  0  0  0  0  0
  -12.0143    9.2797   71.2477 C   0  0  0  0  0  0  0  0  0  0  0  0
  -10.6197   13.6245   67.0111 C   0  0  0  0  0  0  0  0  0  0  0  0
  -11.9431   13.8952   66.8160 C   0  0  0  0  0  0  0  0  0  0  0  0
  -11.2636   14.6088   68.7751 C   0  0  0  0  0  0  0  0  0  0  0  0
   -9.8453   12.9553   66.0090 C   0  0  0  0  0  0  0  0  0  0  0  0
  -12.0191   12.9217   64.6436 C   0  0  0  0  0  0  0  0  0  0  0  0
  -13.7083   15.4435   73.1758 C   0  0  0  0  0  0  0  0  0  0  0  0
  -14.2903   14.5484   72.0899 C   0  0  0  0  0  0  0  0  0  0  0  0
  -12.2971   15.9490   72.9115 C   0  0  0  0  0  0  0  0  0  0  0  0
  -13.5852   13.1999   72.0046 C   0  0  0  0  0  0  0  0  0  0  0  0
  -11.2536   14.8748   72.6324 C   0  0  0  0  0  0  0  0  0  0  0  0
  -12.3824   13.1435   71.0595 C   0  0  2  0  0  0  0  0  0  0  0  0
  -14.1013   13.9306   65.6106 C   0  0  0  0  0  0  0  0  0  0  0  0
   -9.8961   11.9546   63.7930 C   0  0  0  0  0  0  0  0  0  0  0  0
  -11.3551   15.2545   70.1263 C   0  0  0  0  0  0  0  0  0  0  0  0
  -11.6595   11.8008   71.1930 C   0  0  0  0  0  0  0  0  0  0  0  0
  -12.5223   10.6166   70.7584 C   0  0  1  0  0  0  0  0  0  0  0  0
  -10.1912   14.0678   68.2318 N   0  0  0  0  0  0  0  0  0  0  0  0
  -12.3576   14.5280   67.9503 N   0  0  0  0  0  0  0  0  0  0  0  0
  -12.6878   13.5874   65.7006 N   0  0  0  0  0  0  0  0  0  0  0  0
  -10.6188   12.6392   64.8603 N   0  0  0  0  0  0  0  0  0  0  0  0
  -11.3640   14.2569   71.2592 N   0  3  1  0  0  0  0  0  0  0  0  0
   -8.6549   12.7047   66.1653 O   0  0  0  0  0  0  0  0  0  0  0  0
  -12.6003   12.6048   63.5997 O   0  0  0  0  0  0  0  0  0  0  0  0
  -12.5414   10.5529   69.3321 O   0  0  0  0  0  0  0  0  0  0  0  0
  -10.7133    5.8515   72.5034 H   0  0  0  0  0  0  0  0  0  0  0  0
   -9.9497    6.7432   70.3177 H   0  0  0  0  0  0  0  0  0  0  0  0
  -12.3103    7.1545   73.8850 H   0  0  0  0  0  0  0  0  0  0  0  0
  -10.7764    8.9300   69.5123 H   0  0  0  0  0  0  0  0  0  0  0  0
  -13.1428    9.3421   73.0885 H   0  0  0  0  0  0  0  0  0  0  0  0
  -14.3746   16.3022   73.3372 H   0  0  0  0  0  0  0  0  0  0  0  0
  -13.7019   14.8868   74.1226 H   0  0  0  0  0  0  0  0  0  0  0  0
  -15.3726   14.4342   72.2202 H   0  0  0  0  0  0  0  0  0  0  0  0
  -14.1498   15.0655   71.1310 H   0  0  0  0  0  0  0  0  0  0  0  0
  -12.3414   16.6156   72.0392 H   0  0  0  0  0  0  0  0  0  0  0  0
  -11.9688   16.5827   73.7469 H   0  0  0  0  0  0  0  0  0  0  0  0
  -13.2432   12.9312   73.0121 H   0  0  0  0  0  0  0  0  0  0  0  0
  -14.3052   12.4185   71.7345 H   0  0  0  0  0  0  0  0  0  0  0  0
  -10.2089   15.2264   72.7793 H   0  0  0  0  0  0  0  0  0  0  0  0
  -11.4029   14.0613   73.3738 H   0  0  0  0  0  0  0  0  0  0  0  0
  -12.7525   13.2405   70.0226 H   0  0  0  0  0  0  0  0  0  0  0  0
  -14.2085   14.9324   65.1690 H   0  0  0  0  0  0  0  0  0  0  0  0
  -14.6178   13.1940   64.9777 H   0  0  0  0  0  0  0  0  0  0  0  0
  -14.5449   13.9244   66.6171 H   0  0  0  0  0  0  0  0  0  0  0  0
   -9.9624   10.8670   63.9436 H   0  0  0  0  0  0  0  0  0  0  0  0
  -10.3406   12.2180   62.8219 H   0  0  0  0  0  0  0  0  0  0  0  0
   -8.8404   12.2631   63.8088 H   0  0  0  0  0  0  0  0  0  0  0  0
  -10.5065   15.9239   70.3035 H   0  0  0  0  0  0  0  0  0  0  0  0
  -12.2721   15.8459   70.2208 H   0  0  0  0  0  0  0  0  0  0  0  0
  -11.3135   11.6843   72.2231 H   0  0  0  0  0  0  0  0  0  0  0  0
  -10.7567   11.8378   70.5770 H   0  0  0  0  0  0  0  0  0  0  0  0
  -13.5584   10.7751   71.0817 H   0  0  0  0  0  0  0  0  0  0  0  0
  -13.2880   14.8722   68.1482 H   0  0  0  0  0  0  0  0  0  0  0  0
  -10.4062   13.7429   71.1241 H   0  0  0  0  0  0  0  0  0  0  0  0
  -12.8676   11.4118   69.0242 H   0  0  0  0  0  0  0  0  0  0  0  0
  1  2  2  0  0  0  0
  1  3  1  0  0  0  0
  2  4  1  0  0  0  0
  3  5  2  0  0  0  0
  4  6  2  0  0  0  0
  5  6  1  0  0  0  0
  6 22  1  0  0  0  0
  7  8  2  0  0  0  0
  7 10  1  0  0  0  0
  7 23  1  0  0  0  0
  8 24  1  0  0  0  0
  8 25  1  0  0  0  0
  9 20  1  0  0  0  0
  9 23  2  0  0  0  0
  9 24  1  0  0  0  0
 10 26  1  0  0  0  0
 10 28  2  0  0  0  0
 11 25  1  0  0  0  0
 11 26  1  0  0  0  0
 11 29  2  0  0  0  0
 12 13  1  0  0  0  0
 12 14  1  0  0  0  0
 13 15  1  0  0  0  0
 14 16  1  0  0  0  0
 15 17  1  0  0  0  0
 16 27  1  0  0  0  0
 17 21  1  6  0  0  0
 17 27  1  0  0  0  0
 18 25  1  0  0  0  0
 19 26  1  0  0  0  0
 20 27  1  6  0  0  0
 21 22  1  0  0  0  0
 22 30  1  1  0  0  0
  1 31  1  0  0  0  0
  2 32  1  0  0  0  0
  3 33  1  0  0  0  0
  4 34  1  0  0  0  0
  5 35  1  0  0  0  0
 12 36  1  0  0  0  0
 12 37  1  0  0  0  0
 13 38  1  0  0  0  0
 13 39  1  0  0  0  0
 14 40  1  0  0  0  0
 14 41  1  0  0  0  0
 15 42  1  0  0  0  0
 15 43  1  0  0  0  0
 16 44  1  0  0  0  0
 16 45  1  0  0  0  0
 17 46  1  0  0  0  0
 18 47  1  0  0  0  0
 18 48  1  0  0  0  0
 18 49  1  0  0  0  0
 19 50  1  0  0  0  0
 19 51  1  0  0  0  0
 19 52  1  0  0  0  0
 20 53  1  0  0  0  0
 20 54  1  0  0  0  0
 21 55  1  0  0  0  0
 21 56  1  0  0  0  0
 22 57  1  0  0  0  0
 24 58  1  0  0  0  0
 27 59  1  0  0  0  0
 30 60  1  0  0  0  0
M  CHG  1  27   1
M  END
>  <idnumber>
Z1579693328

>  <Chemgauss4>
-13.8237180709839

>  <Hetero-Bemis-Murcko>
c1c2c([nH]c[nH]1)[nH]c(n2)C[NH+]3CCCCCC3CCc4ccccc4

>  <Hetero-Bemis-Murcko>
c1c2c([nH]c[nH]1)[nH]c(n2)C[NH+]3CCCCCC3CCc4ccccc4

>  <MW>
411.506

>  <HBD>
2

>  <HBA>
7

>  <RotBonds>
5

>  <XLogP>
2.5339994430542

>  <sLogP>
1.829

>  <TPSA>
97.3499984741211

>  <FSP3>
0.5

>  <QED>
0.668

$$$$
Z2724590592
  -OEChem-04242015583D

 49 51  0     1  0  0  0  0  0999 V2000
  -12.6018   15.5733   73.5396 C   0  0  0  0  0  0  0  0  0  0  0  0
  -13.4649   14.5454   73.1602 C   0  0  0  0  0  0  0  0  0  0  0  0
  -11.5920   15.9917   72.6731 C   0  0  0  0  0  0  0  0  0  0  0  0
  -13.3182   13.9357   71.9142 C   0  0  0  0  0  0  0  0  0  0  0  0
  -11.4452   15.3820   71.4271 C   0  0  0  0  0  0  0  0  0  0  0  0
  -12.8715   13.7291   65.2905 C   0  0  0  0  0  0  0  0  0  0  0  0
  -11.5792   13.2984   65.1837 C   0  0  0  0  0  0  0  0  0  0  0  0
  -12.3083   14.3540   71.0477 C   0  0  0  0  0  0  0  0  0  0  0  0
  -11.8449   14.1678   67.2021 C   0  0  0  0  0  0  0  0  0  0  0  0
  -11.4895   11.4196   68.9499 C   0  0  0  0  0  0  0  0  0  0  0  0
  -13.3903    8.7150   72.2538 C   0  0  0  0  0  0  0  0  0  0  0  0
  -12.4268    7.7880   71.4824 C   0  0  0  0  0  0  0  0  0  0  0  0
  -12.9719    9.8393   71.2827 C   0  0  0  0  0  0  0  0  0  0  0  0
  -11.6537    9.0615   71.0732 C   0  0  0  0  0  0  0  0  0  0  0  0
  -10.3184    7.8591   69.3435 C   0  0  0  0  0  0  0  0  0  0  0  0
  -11.5721   14.6364   68.6133 C   0  0  0  0  0  0  0  0  0  0  0  0
  -10.4993   10.3248   69.2585 C   0  0  0  0  0  0  0  0  0  0  0  0
  -12.1477   13.6902   69.6906 C   0  0  1  0  0  0  0  0  0  0  0  0
  -13.0081   14.2621   66.5496 N   0  0  0  0  0  0  0  0  0  0  0  0
  -10.9673   13.5827   66.3807 N   0  3  0  0  0  0  0  0  0  0  0  0
  -11.3203   12.5113   69.7883 N   0  0  0  0  0  0  0  0  0  0  0  0
  -11.1979    9.0472   69.6797 N   0  3  2  0  0  0  0  0  0  0  0  0
  -12.3325   11.3351   68.0609 O   0  0  0  0  0  0  0  0  0  0  0  0
  -12.7171   16.0489   74.5092 H   0  0  0  0  0  0  0  0  0  0  0  0
  -14.2520   14.2203   73.8343 H   0  0  0  0  0  0  0  0  0  0  0  0
  -10.9205   16.7927   72.9677 H   0  0  0  0  0  0  0  0  0  0  0  0
  -13.9952   13.1354   71.6271 H   0  0  0  0  0  0  0  0  0  0  0  0
  -10.6554   15.7144   70.7586 H   0  0  0  0  0  0  0  0  0  0  0  0
  -13.7318   13.7378   64.6514 H   0  0  0  0  0  0  0  0  0  0  0  0
  -10.9902   12.8242   64.4242 H   0  0  0  0  0  0  0  0  0  0  0  0
  -14.4454    8.4316   72.2287 H   0  0  0  0  0  0  0  0  0  0  0  0
  -13.0917    8.8958   73.2928 H   0  0  0  0  0  0  0  0  0  0  0  0
  -11.8720    7.0733   72.0959 H   0  0  0  0  0  0  0  0  0  0  0  0
  -12.9063    7.2502   70.6558 H   0  0  0  0  0  0  0  0  0  0  0  0
  -13.6142    9.9125   70.3969 H   0  0  0  0  0  0  0  0  0  0  0  0
  -12.8708   10.8317   71.7299 H   0  0  0  0  0  0  0  0  0  0  0  0
  -10.8559    9.3415   71.7706 H   0  0  0  0  0  0  0  0  0  0  0  0
   -9.4322    7.9093   69.9787 H   0  0  0  0  0  0  0  0  0  0  0  0
  -10.8924    6.9518   69.5415 H   0  0  0  0  0  0  0  0  0  0  0  0
  -10.0493    7.9307   68.2880 H   0  0  0  0  0  0  0  0  0  0  0  0
  -12.0138   15.6369   68.7219 H   0  0  0  0  0  0  0  0  0  0  0  0
  -10.4923   14.7793   68.7519 H   0  0  0  0  0  0  0  0  0  0  0  0
   -9.8477   10.6202   70.0856 H   0  0  0  0  0  0  0  0  0  0  0  0
   -9.9053   10.0879   68.3715 H   0  0  0  0  0  0  0  0  0  0  0  0
  -13.1345   13.3445   69.3570 H   0  0  0  0  0  0  0  0  0  0  0  0
  -13.8611   14.6655   66.9273 H   0  0  0  0  0  0  0  0  0  0  0  0
   -9.9975   13.3794   66.6073 H   0  0  0  0  0  0  0  0  0  0  0  0
  -10.6092   12.4820   70.5133 H   0  0  0  0  0  0  0  0  0  0  0  0
  -12.0273    8.9649   69.0579 H   0  0  0  0  0  0  0  0  0  0  0  0
  1  2  2  0  0  0  0
  1  3  1  0  0  0  0
  2  4  1  0  0  0  0
  3  5  2  0  0  0  0
  4  8  2  0  0  0  0
  5  8  1  0  0  0  0
  6  7  2  0  0  0  0
  6 19  1  0  0  0  0
  7 20  1  0  0  0  0
  8 18  1  0  0  0  0
  9 16  1  0  0  0  0
  9 19  1  0  0  0  0
  9 20  2  0  0  0  0
 10 17  1  0  0  0  0
 10 21  1  0  0  0  0
 10 23  2  0  0  0  0
 11 12  1  0  0  0  0
 11 13  1  0  0  0  0
 12 14  1  0  0  0  0
 13 14  1  0  0  0  0
 14 22  1  0  0  0  0
 15 22  1  6  0  0  0
 16 18  1  6  0  0  0
 17 22  1  0  0  0  0
 18 21  1  0  0  0  0
  1 24  1  0  0  0  0
  2 25  1  0  0  0  0
  3 26  1  0  0  0  0
  4 27  1  0  0  0  0
  5 28  1  0  0  0  0
  6 29  1  0  0  0  0
  7 30  1  0  0  0  0
 11 31  1  0  0  0  0
 11 32  1  0  0  0  0
 12 33  1  0  0  0  0
 12 34  1  0  0  0  0
 13 35  1  0  0  0  0
 13 36  1  0  0  0  0
 14 37  1  0  0  0  0
 15 38  1  0  0  0  0
 15 39  1  0  0  0  0
 15 40  1  0  0  0  0
 16 41  1  0  0  0  0
 16 42  1  0  0  0  0
 17 43  1  0  0  0  0
 17 44  1  0  0  0  0
 18 45  1  0  0  0  0
 19 46  1  0  0  0  0
 20 47  1  0  0  0  0
 21 48  1  0  0  0  0
 22 49  1  0  0  0  0
M  CHG  2  20   1  22   1
M  END
>  <idnumber>
Z2724590592

>  <Chemgauss4>
-13.8212804794312

>  <Hetero-Bemis-Murcko>
c1ccc(cc1)C(Cc2[nH]cc[nH+]2)NCC[NH2+]C3CCC3

>  <Hetero-Bemis-Murcko>
c1ccc(cc1)C(Cc2[nH]cc[nH+]2)NCC[NH2+]C3CCC3

>  <MW>
312.417

>  <HBD>
2

>  <HBA>
3

>  <RotBonds>
7

>  <XLogP>
2.66499948501587

>  <sLogP>
2.294

>  <TPSA>
63.4700012207031

>  <FSP3>
0.444

>  <QED>
0.824

$$$$
Z2912880067
  -OEChem-04242015583D

 56 59  0     1  0  0  0  0  0999 V2000
  -10.7127   14.9052   64.9438 C   0  0  0  0  0  0  0  0  0  0  0  0
  -11.6158   13.8699   65.1623 C   0  0  0  0  0  0  0  0  0  0  0  0
  -10.2193   15.6377   66.0227 C   0  0  0  0  0  0  0  0  0  0  0  0
  -12.0264   13.5672   66.4601 C   0  0  0  0  0  0  0  0  0  0  0  0
  -10.6171   15.3385   67.3356 C   0  0  0  0  0  0  0  0  0  0  0  0
  -11.5387   14.2969   67.5579 C   0  0  0  0  0  0  0  0  0  0  0  0
  -11.7536    7.4276   71.9971 C   0  0  0  0  0  0  0  0  0  0  0  0
  -11.9041   11.4430   69.0118 C   0  0  0  0  0  0  0  0  0  0  0  0
  -10.0941   16.1954   68.4622 C   0  0  0  0  0  0  0  0  0  0  0  0
  -11.0301    8.2764   70.9827 C   0  0  0  0  0  0  0  0  0  0  0  0
  -10.3093   15.5917   69.8494 C   0  0  0  0  0  0  0  0  0  0  0  0
  -13.5869   14.2072   73.0437 C   0  0  0  0  0  0  0  0  0  0  0  0
  -13.0339   15.6054   73.2336 C   0  0  0  0  0  0  0  0  0  0  0  0
  -13.3118    9.3442   72.4387 C   0  0  0  0  0  0  0  0  0  0  0  0
  -13.3174   13.9422   71.5781 C   0  0  0  0  0  0  0  0  0  0  0  0
  -11.7422   15.6026   72.4351 C   0  0  0  0  0  0  0  0  0  0  0  0
  -12.3770   10.2436   71.6598 C   0  0  0  0  0  0  0  0  0  0  0  0
  -11.9882   13.9183   68.9546 C   0  0  2  0  0  0  0  0  0  0  0  0
  -11.7299   15.0485   69.9647 C   0  0  1  0  0  0  0  0  0  0  0  0
  -11.0630   10.3086   69.5409 C   0  0  0  0  0  0  0  0  0  0  0  0
  -12.7532    8.0368   72.7196 N   0  0  0  0  0  0  0  0  0  0  0  0
  -11.3643   12.6723   69.3491 N   0  0  0  0  0  0  0  0  0  0  0  0
  -11.8369    9.4520   70.5025 N   0  3  1  0  0  0  0  0  0  0  0  0
  -11.9512   14.5538   71.3580 N   0  3  0  0  0  0  0  0  0  0  0  0
  -11.4002    6.2660   72.2076 O   0  0  0  0  0  0  0  0  0  0  0  0
  -12.9339   11.2737   68.3644 O   0  0  0  0  0  0  0  0  0  0  0  0
  -10.3947   15.1454   63.9335 H   0  0  0  0  0  0  0  0  0  0  0  0
  -12.0016   13.2982   64.3235 H   0  0  0  0  0  0  0  0  0  0  0  0
   -9.5219   16.4507   65.8347 H   0  0  0  0  0  0  0  0  0  0  0  0
  -12.7319   12.7539   66.6136 H   0  0  0  0  0  0  0  0  0  0  0  0
   -9.0223   16.3809   68.3225 H   0  0  0  0  0  0  0  0  0  0  0  0
  -10.6054   17.1652   68.4113 H   0  0  0  0  0  0  0  0  0  0  0  0
  -10.1116    8.6631   71.4317 H   0  0  0  0  0  0  0  0  0  0  0  0
  -10.8024    7.6689   70.1038 H   0  0  0  0  0  0  0  0  0  0  0  0
   -9.5762   14.7927   70.0182 H   0  0  0  0  0  0  0  0  0  0  0  0
  -10.1216   16.3617   70.6074 H   0  0  0  0  0  0  0  0  0  0  0  0
  -13.0453   13.4901   73.6718 H   0  0  0  0  0  0  0  0  0  0  0  0
  -14.6511   14.1456   73.2876 H   0  0  0  0  0  0  0  0  0  0  0  0
  -13.7298   16.3457   72.8214 H   0  0  0  0  0  0  0  0  0  0  0  0
  -12.8668   15.8449   74.2877 H   0  0  0  0  0  0  0  0  0  0  0  0
  -13.5803    9.8028   73.3956 H   0  0  0  0  0  0  0  0  0  0  0  0
  -14.2386    9.1763   71.8787 H   0  0  0  0  0  0  0  0  0  0  0  0
  -13.2708   12.8813   71.3215 H   0  0  0  0  0  0  0  0  0  0  0  0
  -14.0312   14.4682   70.9358 H   0  0  0  0  0  0  0  0  0  0  0  0
  -11.5282   16.5704   71.9727 H   0  0  0  0  0  0  0  0  0  0  0  0
  -10.8886   15.2727   73.0352 H   0  0  0  0  0  0  0  0  0  0  0  0
  -12.9151   11.1038   71.2540 H   0  0  0  0  0  0  0  0  0  0  0  0
  -11.5296   10.5832   72.2619 H   0  0  0  0  0  0  0  0  0  0  0  0
  -13.0686   13.7243   68.9359 H   0  0  0  0  0  0  0  0  0  0  0  0
  -12.4539   15.8597   69.8181 H   0  0  0  0  0  0  0  0  0  0  0  0
  -10.1965   10.6958   70.0841 H   0  0  0  0  0  0  0  0  0  0  0  0
  -10.7404    9.6599   68.7218 H   0  0  0  0  0  0  0  0  0  0  0  0
  -13.1302    7.5293   73.5142 H   0  0  0  0  0  0  0  0  0  0  0  0
  -10.5200   12.7190   69.9084 H   0  0  0  0  0  0  0  0  0  0  0  0
  -12.6453    9.0753   69.9854 H   0  0  0  0  0  0  0  0  0  0  0  0
  -11.2599   13.8099   71.5299 H   0  0  0  0  0  0  0  0  0  0  0  0
  1  2  2  0  0  0  0
  1  3  1  0  0  0  0
  2  4  1  0  0  0  0
  3  5  2  0  0  0  0
  4  6  2  0  0  0  0
  5  6  1  0  0  0  0
  5  9  1  0  0  0  0
  6 18  1  0  0  0  0
  7 10  1  0  0  0  0
  7 21  1  0  0  0  0
  7 25  2  0  0  0  0
  8 20  1  0  0  0  0
  8 22  1  0  0  0  0
  8 26  2  0  0  0  0
  9 11  1  0  0  0  0
 10 23  1  0  0  0  0
 11 19  1  0  0  0  0
 12 13  1  0  0  0  0
 12 15  1  0  0  0  0
 13 16  1  0  0  0  0
 14 17  1  0  0  0  0
 14 21  1  0  0  0  0
 15 24  1  0  0  0  0
 16 24  1  0  0  0  0
 17 23  1  0  0  0  0
 18 19  1  0  0  0  0
 18 22  1  1  0  0  0
 19 24  1  6  0  0  0
 20 23  1  6  0  0  0
  1 27  1  0  0  0  0
  2 28  1  0  0  0  0
  3 29  1  0  0  0  0
  4 30  1  0  0  0  0
  9 31  1  0  0  0  0
  9 32  1  0  0  0  0
 10 33  1  0  0  0  0
 10 34  1  0  0  0  0
 11 35  1  0  0  0  0
 11 36  1  0  0  0  0
 12 37  1  0  0  0  0
 12 38  1  0  0  0  0
 13 39  1  0  0  0  0
 13 40  1  0  0  0  0
 14 41  1  0  0  0  0
 14 42  1  0  0  0  0
 15 43  1  0  0  0  0
 15 44  1  0  0  0  0
 16 45  1  0  0  0  0
 16 46  1  0  0  0  0
 17 47  1  0  0  0  0
 17 48  1  0  0  0  0
 18 49  1  0  0  0  0
 19 50  1  0  0  0  0
 20 51  1  0  0  0  0
 20 52  1  0  0  0  0
 21 53  1  0  0  0  0
 22 54  1  0  0  0  0
 23 55  1  0  0  0  0
 24 56  1  0  0  0  0
M  CHG  2  23   1  24   1
M  END
>  <idnumber>
Z2912880067

>  <Chemgauss4>
-13.8207664489746

>  <Hetero-Bemis-Murcko>
c1ccc2c(c1)CCC(C2NCC[NH+]3CCNCC3)[NH+]4CCCC4

>  <Hetero-Bemis-Murcko>
c1ccc2c(c1)CCC(C2NCC[NH+]3CCNCC3)[NH+]4CCCC4

>  <MW>
356.47

>  <HBD>
2

>  <HBA>
4

>  <RotBonds>
4

>  <XLogP>
0.670999705791473

>  <sLogP>
0.686

>  <TPSA>
67.0800018310547

>  <FSP3>
0.6

>  <QED>
0.833

$$$$
Z2365978211
  -OEChem-04242015583D

 56 58  0     1  0  0  0  0  0999 V2000
  -11.1227   11.5039   63.7314 C   0  0  0  0  0  0  0  0  0  0  0  0
  -12.5091   16.1721   73.8254 C   0  0  0  0  0  0  0  0  0  0  0  0
  -10.1892   11.7380   64.7410 C   0  0  0  0  0  0  0  0  0  0  0  0
  -12.2937   12.2598   63.6753 C   0  0  0  0  0  0  0  0  0  0  0  0
  -13.3748   15.0829   73.7272 C   0  0  0  0  0  0  0  0  0  0  0  0
  -11.7141   16.5316   72.7371 C   0  0  0  0  0  0  0  0  0  0  0  0
  -10.4267   12.7278   65.6947 C   0  0  0  0  0  0  0  0  0  0  0  0
  -12.5312   13.2496   64.6290 C   0  0  0  0  0  0  0  0  0  0  0  0
  -13.4454   14.3530   72.5406 C   0  0  0  0  0  0  0  0  0  0  0  0
  -11.7847   15.8017   71.5505 C   0  0  0  0  0  0  0  0  0  0  0  0
  -11.5977   13.4837   65.6387 C   0  0  0  0  0  0  0  0  0  0  0  0
  -12.6504   14.7124   71.4523 C   0  0  0  0  0  0  0  0  0  0  0  0
  -11.0660   10.5804   69.7430 C   0  0  0  0  0  0  0  0  0  0  0  0
  -12.1148   11.6053   69.5358 C   0  0  0  0  0  0  0  0  0  0  0  0
  -10.9129    7.3130   71.2491 C   0  0  0  0  0  0  0  0  0  0  0  0
  -12.0433    7.3501   72.2770 C   0  0  0  0  0  0  0  0  0  0  0  0
  -10.2578    8.6825   71.0902 C   0  0  0  0  0  0  0  0  0  0  0  0
  -12.3594    9.8109   71.7775 C   0  0  0  0  0  0  0  0  0  0  0  0
  -13.0409    8.4534   71.9311 C   0  0  2  0  0  0  0  0  0  0  0  0
  -11.8540   14.5485   66.6644 C   0  0  0  0  0  0  0  0  0  0  0  0
  -12.4259   14.7780   68.9322 C   0  0  0  0  0  0  0  0  0  0  0  0
  -12.7264   13.9207   70.1646 C   0  0  1  0  0  0  0  0  0  0  0  0
  -11.2508    9.7214   70.8176 N   0  0  0  0  0  0  0  0  0  0  0  0
  -11.8478   12.7742   70.2152 N   0  0  0  0  0  0  0  0  0  0  0  0
  -14.0538    8.5433   73.0158 N   0  3  0  0  0  0  0  0  0  0  0  0
  -10.1421   10.6015   68.9403 O   0  0  0  0  0  0  0  0  0  0  0  0
  -13.0803   11.3668   68.8243 O   0  0  0  0  0  0  0  0  0  0  0  0
  -12.5514   13.9770   67.7616 O   0  0  0  0  0  0  0  0  0  0  0  0
  -10.9370   10.7341   62.9881 H   0  0  0  0  0  0  0  0  0  0  0  0
  -12.4552   16.7412   74.7489 H   0  0  0  0  0  0  0  0  0  0  0  0
   -9.2769   11.1503   64.7842 H   0  0  0  0  0  0  0  0  0  0  0  0
  -13.0202   12.0786   62.8888 H   0  0  0  0  0  0  0  0  0  0  0  0
  -13.9947   14.8035   74.5741 H   0  0  0  0  0  0  0  0  0  0  0  0
  -11.0408   17.3803   72.8128 H   0  0  0  0  0  0  0  0  0  0  0  0
   -9.6938   12.9031   66.4779 H   0  0  0  0  0  0  0  0  0  0  0  0
  -13.4464   13.8335   64.5775 H   0  0  0  0  0  0  0  0  0  0  0  0
  -14.1227   13.5056   72.4732 H   0  0  0  0  0  0  0  0  0  0  0  0
  -11.1615   16.0890   70.7078 H   0  0  0  0  0  0  0  0  0  0  0  0
  -10.1609    6.5772   71.5554 H   0  0  0  0  0  0  0  0  0  0  0  0
  -11.3086    6.9830   70.2806 H   0  0  0  0  0  0  0  0  0  0  0  0
  -12.5446    6.3755   72.3050 H   0  0  0  0  0  0  0  0  0  0  0  0
  -11.6138    7.5232   73.2723 H   0  0  0  0  0  0  0  0  0  0  0  0
   -9.7393    8.9656   72.0140 H   0  0  0  0  0  0  0  0  0  0  0  0
   -9.5087    8.6464   70.2925 H   0  0  0  0  0  0  0  0  0  0  0  0
  -13.0896   10.5648   71.4713 H   0  0  0  0  0  0  0  0  0  0  0  0
  -11.9235   10.1431   72.7281 H   0  0  0  0  0  0  0  0  0  0  0  0
  -13.5929    8.1986   71.0189 H   0  0  0  0  0  0  0  0  0  0  0  0
  -10.9138   14.9799   67.0245 H   0  0  0  0  0  0  0  0  0  0  0  0
  -12.4554   15.3594   66.2395 H   0  0  0  0  0  0  0  0  0  0  0  0
  -13.1404   15.6040   68.8465 H   0  0  0  0  0  0  0  0  0  0  0  0
  -11.4121   15.1921   68.9583 H   0  0  0  0  0  0  0  0  0  0  0  0
  -13.7332   13.4982   70.0548 H   0  0  0  0  0  0  0  0  0  0  0  0
  -11.0008   12.8322   70.7732 H   0  0  0  0  0  0  0  0  0  0  0  0
  -14.9332    8.9310   72.6610 H   0  0  0  0  0  0  0  0  0  0  0  0
  -13.7217    9.1478   73.7734 H   0  0  0  0  0  0  0  0  0  0  0  0
  -14.2489    7.6175   73.4087 H   0  0  0  0  0  0  0  0  0  0  0  0
  1  3  2  0  0  0  0
  1  4  1  0  0  0  0
  2  5  2  0  0  0  0
  2  6  1  0  0  0  0
  3  7  1  0  0  0  0
  4  8  2  0  0  0  0
  5  9  1  0  0  0  0
  6 10  2  0  0  0  0
  7 11  2  0  0  0  0
  8 11  1  0  0  0  0
  9 12  2  0  0  0  0
 10 12  1  0  0  0  0
 11 20  1  0  0  0  0
 12 22  1  0  0  0  0
 13 14  1  0  0  0  0
 13 23  1  0  0  0  0
 13 26  2  0  0  0  0
 14 24  1  0  0  0  0
 14 27  2  0  0  0  0
 15 16  1  0  0  0  0
 15 17  1  0  0  0  0
 16 19  1  0  0  0  0
 17 23  1  0  0  0  0
 18 19  1  0  0  0  0
 18 23  1  0  0  0  0
 19 25  1  0  0  0  0
 20 28  1  0  0  0  0
 21 22  1  6  0  0  0
 21 28  1  0  0  0  0
 22 24  1  0  0  0  0
  1 29  1  0  0  0  0
  2 30  1  0  0  0  0
  3 31  1  0  0  0  0
  4 32  1  0  0  0  0
  5 33  1  0  0  0  0
  6 34  1  0  0  0  0
  7 35  1  0  0  0  0
  8 36  1  0  0  0  0
  9 37  1  0  0  0  0
 10 38  1  0  0  0  0
 15 39  1  0  0  0  0
 15 40  1  0  0  0  0
 16 41  1  0  0  0  0
 16 42  1  0  0  0  0
 17 43  1  0  0  0  0
 17 44  1  0  0  0  0
 18 45  1  0  0  0  0
 18 46  1  0  0  0  0
 19 47  1  6  0  0  0
 20 48  1  0  0  0  0
 20 49  1  0  0  0  0
 21 50  1  0  0  0  0
 21 51  1  0  0  0  0
 22 52  1  0  0  0  0
 24 53  1  0  0  0  0
 25 54  1  0  0  0  0
 25 55  1  0  0  0  0
 25 56  1  0  0  0  0
M  CHG  1  25   1
M  END
>  <idnumber>
Z2365978211

>  <Chemgauss4>
-13.8192625045776

>  <Hetero-Bemis-Murcko>
c1ccc(cc1)COCC(c2ccccc2)NCCN3CCCCC3

>  <Hetero-Bemis-Murcko>
c1ccc(cc1)COCC(c2ccccc2)NCCN3CCCCC3

>  <MW>
381.476

>  <HBD>
2

>  <HBA>
4

>  <RotBonds>
6

>  <XLogP>
1.82399988174438

>  <sLogP>
2.01

>  <TPSA>
86.2799987792969

>  <FSP3>
0.364

>  <QED>
0.75

$$$$
s_22____6585410____130477
  -OEChem-04242015583D

 49 52  0     1  0  0  0  0  0999 V2000
   -7.4905   17.3549   66.7628 C   0  0  0  0  0  0  0  0  0  0  0  0
  -13.7018   15.3870   73.2709 C   0  0  0  0  0  0  0  0  0  0  0  0
  -10.6240    6.9577   72.9322 C   0  0  0  0  0  0  0  0  0  0  0  0
   -7.5678   17.8458   68.0661 C   0  0  0  0  0  0  0  0  0  0  0  0
   -8.5566   16.6342   66.2246 C   0  0  0  0  0  0  0  0  0  0  0  0
  -12.4011   15.8635   73.4349 C   0  0  0  0  0  0  0  0  0  0  0  0
  -14.1133   14.8949   72.0323 C   0  0  0  0  0  0  0  0  0  0  0  0
  -11.5357    6.3467   72.0735 C   0  0  0  0  0  0  0  0  0  0  0  0
  -10.2719    8.3019   72.7643 C   0  0  0  0  0  0  0  0  0  0  0  0
   -8.7111   17.6160   68.8313 C   0  0  0  0  0  0  0  0  0  0  0  0
   -9.7000   16.4043   66.9898 C   0  0  0  0  0  0  0  0  0  0  0  0
  -11.5120   15.8479   72.3602 C   0  0  0  0  0  0  0  0  0  0  0  0
  -13.2242   14.8793   70.9576 C   0  0  0  0  0  0  0  0  0  0  0  0
  -12.1234    7.0567   71.0226 C   0  0  0  0  0  0  0  0  0  0  0  0
  -10.7303   10.3808   71.2570 C   0  0  0  0  0  0  0  0  0  0  0  0
  -10.8514    9.0379   71.7117 C   0  0  0  0  0  0  0  0  0  0  0  0
   -9.7773   16.8953   68.2931 C   0  0  0  0  0  0  0  0  0  0  0  0
  -11.9236   15.3559   71.1216 C   0  0  0  0  0  0  0  0  0  0  0  0
  -11.7619    8.3996   70.8669 C   0  0  0  0  0  0  0  0  0  0  0  0
  -11.5541   10.5290   70.1650 C   0  0  0  0  0  0  0  0  0  0  0  0
  -11.7699   11.6956   69.3688 C   0  0  0  0  0  0  0  0  0  0  0  0
  -11.0162   16.6457   69.1216 C   0  0  0  0  0  0  0  0  0  0  0  0
  -11.1934   14.1323   69.0207 C   0  0  0  0  0  0  0  0  0  0  0  0
  -10.9532   15.3388   69.9475 C   0  0  2  0  0  0  0  0  0  0  0  0
  -12.1723    9.3287   69.9376 N   0  0  0  0  0  0  0  0  0  0  0  0
  -11.0663   12.8699   69.7128 N   0  0  0  0  0  0  0  0  0  0  0  0
  -12.5744   11.6922   68.4031 O   0  0  0  0  0  0  0  0  0  0  0  0
   -6.6006   17.5351   66.1667 H   0  0  0  0  0  0  0  0  0  0  0  0
  -14.3935   15.3980   74.1082 H   0  0  0  0  0  0  0  0  0  0  0  0
  -10.1808    6.3851   73.7427 H   0  0  0  0  0  0  0  0  0  0  0  0
   -6.7382   18.4079   68.4849 H   0  0  0  0  0  0  0  0  0  0  0  0
   -8.4972   16.2527   65.2096 H   0  0  0  0  0  0  0  0  0  0  0  0
  -12.0802   16.2457   74.3995 H   0  0  0  0  0  0  0  0  0  0  0  0
  -15.1255   14.5228   71.9046 H   0  0  0  0  0  0  0  0  0  0  0  0
  -11.7944    5.3016   72.2221 H   0  0  0  0  0  0  0  0  0  0  0  0
   -9.5600    8.7659   73.4413 H   0  0  0  0  0  0  0  0  0  0  0  0
   -8.7625   18.0022   69.8459 H   0  0  0  0  0  0  0  0  0  0  0  0
  -10.5257   15.8417   66.5622 H   0  0  0  0  0  0  0  0  0  0  0  0
  -10.5006   16.2214   72.4971 H   0  0  0  0  0  0  0  0  0  0  0  0
  -13.5537   14.4942   69.9963 H   0  0  0  0  0  0  0  0  0  0  0  0
  -12.8328    6.5807   70.3540 H   0  0  0  0  0  0  0  0  0  0  0  0
  -10.1057   11.1530   71.6862 H   0  0  0  0  0  0  0  0  0  0  0  0
  -11.9029   16.6537   68.4744 H   0  0  0  0  0  0  0  0  0  0  0  0
  -11.1424   17.5024   69.7976 H   0  0  0  0  0  0  0  0  0  0  0  0
  -12.2097   14.1602   68.6133 H   0  0  0  0  0  0  0  0  0  0  0  0
  -10.4959   14.1154   68.1769 H   0  0  0  0  0  0  0  0  0  0  0  0
   -9.9342   15.2389   70.3483 H   0  0  0  0  0  0  0  0  0  0  0  0
  -12.8339    9.1471   69.1953 H   0  0  0  0  0  0  0  0  0  0  0  0
  -10.4739   12.8528   70.5365 H   0  0  0  0  0  0  0  0  0  0  0  0
  1  4  2  0  0  0  0
  1  5  1  0  0  0  0
  2  6  2  0  0  0  0
  2  7  1  0  0  0  0
  3  8  2  0  0  0  0
  3  9  1  0  0  0  0
  4 10  1  0  0  0  0
  5 11  2  0  0  0  0
  6 12  1  0  0  0  0
  7 13  2  0  0  0  0
  8 14  1  0  0  0  0
  9 16  2  0  0  0  0
 10 17  2  0  0  0  0
 11 17  1  0  0  0  0
 12 18  2  0  0  0  0
 13 18  1  0  0  0  0
 14 19  2  0  0  0  0
 15 16  1  0  0  0  0
 15 20  2  0  0  0  0
 16 19  1  0  0  0  0
 17 22  1  0  0  0  0
 18 24  1  0  0  0  0
 19 25  1  0  0  0  0
 20 21  1  0  0  0  0
 20 25  1  0  0  0  0
 21 26  1  0  0  0  0
 21 27  2  0  0  0  0
 22 24  1  0  0  0  0
 23 24  1  1  0  0  0
 23 26  1  0  0  0  0
  1 28  1  0  0  0  0
  2 29  1  0  0  0  0
  3 30  1  0  0  0  0
  4 31  1  0  0  0  0
  5 32  1  0  0  0  0
  6 33  1  0  0  0  0
  7 34  1  0  0  0  0
  8 35  1  0  0  0  0
  9 36  1  0  0  0  0
 10 37  1  0  0  0  0
 11 38  1  0  0  0  0
 12 39  1  0  0  0  0
 13 40  1  0  0  0  0
 14 41  1  0  0  0  0
 15 42  1  0  0  0  0
 22 43  1  0  0  0  0
 22 44  1  0  0  0  0
 23 45  1  0  0  0  0
 23 46  1  0  0  0  0
 24 47  1  0  0  0  0
 25 48  1  0  0  0  0
 26 49  1  0  0  0  0
M  END
>  <idnumber>
s_22____6585410____130477

>  <Chemgauss4>
-13.8092565536499

>  <Hetero-Bemis-Murcko>
c1ccc(cc1)CC(CNCc2cc3ccccc3[nH]2)c4ccccc4

>  <Hetero-Bemis-Murcko>
c1ccc(cc1)CC(CNCc2cc3ccccc3[nH]2)c4ccccc4

>  <MW>
354.453

>  <HBD>
2

>  <HBA>
1

>  <RotBonds>
6

>  <XLogP>
4.83500051498413

>  <sLogP>
4.924

>  <TPSA>
44.8899993896484

>  <FSP3>
0.125

>  <QED>
0.507

$$$$
